Coordinates from ORCA-job 4-NO2PhN2+~CF3COO-_B3LYPG-6-31G_dp-NX-Scan-d89-09-n800
 OpenBabel11261920383D

 22 21  0  0  0  0  0  0  0  0999 V2000
   -1.7518   -0.2957    0.2945 C   0  0  0  0  0  0  0  0  0  0  0  0
   -2.5606   -1.2981    0.7455 N   0  0  0  0  0  0  0  0  0  0  0  0
   -3.1523   -2.1767    1.1281 N   0  0  0  0  0  0  0  0  0  0  0  0
   -2.2572    0.6923   -0.5850 C   0  0  0  0  0  0  0  0  0  0  0  0
   -1.3483    1.6081   -1.1055 C   0  0  0  0  0  0  0  0  0  0  0  0
   -0.0197    1.5515   -0.6978 C   0  0  0  0  0  0  0  0  0  0  0  0
    0.9390    2.5183   -1.2668 N   0  0  0  0  0  0  0  0  0  0  0  0
    0.5375    3.2429   -2.1680 O   0  0  0  0  0  0  0  0  0  0  0  0
    2.0779    2.5099   -0.7992 O   0  0  0  0  0  0  0  0  0  0  0  0
    0.4639    0.6146    0.2299 C   0  0  0  0  0  0  0  0  0  0  0  0
   -0.3960   -0.3359    0.7306 C   0  0  0  0  0  0  0  0  0  0  0  0
   -3.3038    0.7635   -0.8560 H   0  0  0  0  0  0  0  0  0  0  0  0
   -1.7148    2.3813   -1.7682 H   0  0  0  0  0  0  0  0  0  0  0  0
    1.5043    0.6510    0.5269 H   0  0  0  0  0  0  0  0  0  0  0  0
   -0.0664   -1.0941    1.4314 H   0  0  0  0  0  0  0  0  0  0  0  0
   -3.9595    5.4417   -1.3404 O   0  0  0  0  0  0  0  0  0  0  0  0
   -3.4792    4.4277   -0.8253 C   0  0  0  0  0  0  0  0  0  0  0  0
   -3.6017    3.2159   -1.1932 O   0  0  0  0  0  0  0  0  0  0  0  0
   -2.5712    4.6095    0.4279 C   0  0  0  0  0  0  0  0  0  0  0  0
   -2.9071    3.7485    1.4223 F   0  0  0  0  0  0  0  0  0  0  0  0
   -1.2675    4.3352    0.1139 F   0  0  0  0  0  0  0  0  0  0  0  0
   -2.6051    5.8479    0.9325 F   0  0  0  0  0  0  0  0  0  0  0  0
  1 11  1  0  0  0  0
  1  2  1  0  0  0  0
  2  3  1  0  0  0  0
  4  1  2  0  0  0  0
  5  6  2  0  0  0  0
  5  4  1  0  0  0  0
  6 10  1  0  0  0  0
  7  9  2  0  0  0  0
  7  6  1  0  0  0  0
  8  7  2  0  0  0  0
 10 14  1  0  0  0  0
 10 11  2  0  0  0  0
 11 15  1  0  0  0  0
 12  4  1  0  0  0  0
 13  5  1  0  0  0  0
 16 17  2  0  0  0  0
 17 19  1  0  0  0  0
 18 17  1  0  0  0  0
 19 22  1  0  0  0  0
 19 20  1  0  0  0  0
 21 19  1  0  0  0  0
M  RAD  3   2   2   3   3  18   2
M  END
