Coordinates from ORCA-job 4-NO2PhN2+~CF3COO-_B3LYPG-6-31G_dp-NX-Scan-d89-09-n800
 OpenBabel11261920383D

 22 22  0  0  1  0  0  0  0  0999 V2000
   -1.8870    0.5454   -0.1384 C   0  0  0  0  0  0  0  0  0  0  0  0
   -3.0743    0.0537    0.1721 N   0  0  0  0  0  0  0  0  0  0  0  0
   -4.1496   -0.2174    0.4082 N   0  0  0  0  0  0  0  0  0  0  0  0
   -1.8873    1.8491   -0.8750 C   0  0  2  0  0  0  0  0  0  0  0  0
   -0.5558    2.1173   -1.4866 C   0  0  0  0  0  0  0  0  0  0  0  0
    0.5329    1.4229   -1.0933 C   0  0  0  0  0  0  0  0  0  0  0  0
    1.8395    1.7898   -1.6953 N   0  0  0  0  0  0  0  0  0  0  0  0
    1.8555    2.6766   -2.5442 O   0  0  0  0  0  0  0  0  0  0  0  0
    2.8275    1.1776   -1.2957 O   0  0  0  0  0  0  0  0  0  0  0  0
    0.5186    0.3234   -0.1646 C   0  0  0  0  0  0  0  0  0  0  0  0
   -0.6861   -0.1170    0.2810 C   0  0  0  0  0  0  0  0  0  0  0  0
   -2.7017    1.9070   -1.6010 H   0  0  0  0  0  0  0  0  0  0  0  0
   -0.4660    2.9083   -2.2201 H   0  0  0  0  0  0  0  0  0  0  0  0
    1.4504   -0.1420    0.1207 H   0  0  0  0  0  0  0  0  0  0  0  0
   -0.7640   -0.9740    0.9420 H   0  0  0  0  0  0  0  0  0  0  0  0
   -4.3082    2.3677    0.3027 O   0  0  0  0  0  0  0  0  0  0  0  0
   -3.4021    3.1511    0.4770 C   0  0  0  0  0  0  0  0  0  0  0  0
   -2.1485    3.0302    0.0511 O   0  0  0  0  0  0  0  0  0  0  0  0
   -3.5733    4.4736    1.2600 C   0  0  0  0  0  0  0  0  0  0  0  0
   -3.3190    5.5212    0.4569 F   0  0  0  0  0  0  0  0  0  0  0  0
   -4.8202    4.5793    1.7230 F   0  0  0  0  0  0  0  0  0  0  0  0
   -2.7206    4.5155    2.2980 F   0  0  0  0  0  0  0  0  0  0  0  0
  1  2  1  0  0  0  0
  1 11  2  0  0  0  0
  2  3  1  0  0  0  0
  4 12  1  6  0  0  0
  4  1  1  0  0  0  0
  4 18  1  0  0  0  0
  5  6  2  0  0  0  0
  5  4  1  0  0  0  0
  6 10  1  0  0  0  0
  7  9  2  0  0  0  0
  7  6  1  0  0  0  0
  8  7  2  0  0  0  0
 10 14  1  0  0  0  0
 10 11  1  0  0  0  0
 11 15  1  0  0  0  0
 13  5  1  0  0  0  0
 16 17  2  0  0  0  0
 17 19  1  0  0  0  0
 18 17  1  0  0  0  0
 19 21  1  0  0  0  0
 19 22  1  0  0  0  0
 20 19  1  0  0  0  0
M  RAD  3   2   2   3   3  10   2
M  END
