Coordinates from ORCA-job 4-NO2PhN2+~CF3COO-_B3LYPG-6-31G_dp-NX-Scan-d89-09-n800
 OpenBabel11261920383D

 22 22  0  0  1  0  0  0  0  0999 V2000
   -1.8380    0.3524    0.0020 C   0  0  0  0  0  0  0  0  0  0  0  0
   -2.9340   -0.2746    0.3784 N   0  0  0  0  0  0  0  0  0  0  0  0
   -3.8897   -0.8056    0.6969 N   0  0  0  0  0  0  0  0  0  0  0  0
   -2.0043    1.6562   -0.7144 C   0  0  2  0  0  0  0  0  0  0  0  0
   -0.7479    2.0418   -1.4226 C   0  0  0  0  0  0  0  0  0  0  0  0
    0.4253    1.4598   -1.1008 C   0  0  0  0  0  0  0  0  0  0  0  0
    1.6506    1.9451   -1.7825 N   0  0  0  0  0  0  0  0  0  0  0  0
    1.5299    2.8275   -2.6276 O   0  0  0  0  0  0  0  0  0  0  0  0
    2.7145    1.4286   -1.4481 O   0  0  0  0  0  0  0  0  0  0  0  0
    0.5730    0.3715   -0.1672 C   0  0  0  0  0  0  0  0  0  0  0  0
   -0.5496   -0.1817    0.3553 C   0  0  0  0  0  0  0  0  0  0  0  0
   -2.8722    1.6704   -1.3757 H   0  0  0  0  0  0  0  0  0  0  0  0
   -0.7856    2.8323   -2.1618 H   0  0  0  0  0  0  0  0  0  0  0  0
    1.5620    0.0023    0.0622 H   0  0  0  0  0  0  0  0  0  0  0  0
   -0.5007   -1.0353    1.0232 H   0  0  0  0  0  0  0  0  0  0  0  0
   -4.1331    3.4413   -0.8149 O   0  0  0  0  0  0  0  0  0  0  0  0
   -3.3514    3.4980    0.1023 C   0  0  0  0  0  0  0  0  0  0  0  0
   -2.2793    2.7279    0.3095 O   0  0  0  0  0  0  0  0  0  0  0  0
   -3.4769    4.5229    1.2543 C   0  0  0  0  0  0  0  0  0  0  0  0
   -2.3730    5.2853    1.3226 F   0  0  0  0  0  0  0  0  0  0  0  0
   -4.5346    5.3115    1.0595 F   0  0  0  0  0  0  0  0  0  0  0  0
   -3.6245    3.8816    2.4277 F   0  0  0  0  0  0  0  0  0  0  0  0
  1 11  2  0  0  0  0
  1  2  1  0  0  0  0
  2  3  1  0  0  0  0
  4 12  1  6  0  0  0
  4  1  1  0  0  0  0
  4 18  1  0  0  0  0
  5  6  2  0  0  0  0
  5  4  1  0  0  0  0
  6 10  1  0  0  0  0
  7  9  2  0  0  0  0
  7  6  1  0  0  0  0
  8  7  2  0  0  0  0
 10 14  1  0  0  0  0
 10 11  1  0  0  0  0
 11 15  1  0  0  0  0
 13  5  1  0  0  0  0
 16 17  2  0  0  0  0
 17 18  1  0  0  0  0
 17 19  1  0  0  0  0
 19 20  1  0  0  0  0
 19 22  1  0  0  0  0
 21 19  1  0  0  0  0
M  RAD  3   2   2   3   3  10   2
M  END
