Coordinates from ORCA-job 4-NO2PhN2+~CF3COO-_B3LYPG-6-31G_dp-NX-Scan-d89-09-n800
 OpenBabel11261920383D

 22 21  0  0  0  0  0  0  0  0999 V2000
   -1.7224   -0.5958    0.2728 C   0  0  0  0  0  0  0  0  0  0  0  0
   -2.4904   -1.6644    0.6300 N   0  0  0  0  0  0  0  0  0  0  0  0
   -3.0866   -2.5681    0.9404 N   0  0  0  0  0  0  0  0  0  0  0  0
   -2.3066    0.4778   -0.4410 C   0  0  0  0  0  0  0  0  0  0  0  0
   -1.4781    1.5156   -0.8450 C   0  0  0  0  0  0  0  0  0  0  0  0
   -0.1306    1.4730   -0.4899 C   0  0  0  0  0  0  0  0  0  0  0  0
    0.7582    2.5607   -0.9457 N   0  0  0  0  0  0  0  0  0  0  0  0
    0.2877    3.3780   -1.7250 O   0  0  0  0  0  0  0  0  0  0  0  0
    1.9116    2.5504   -0.5140 O   0  0  0  0  0  0  0  0  0  0  0  0
    0.4362    0.4394    0.2700 C   0  0  0  0  0  0  0  0  0  0  0  0
   -0.3523   -0.6262    0.6503 C   0  0  0  0  0  0  0  0  0  0  0  0
   -3.3679    0.5167   -0.6595 H   0  0  0  0  0  0  0  0  0  0  0  0
   -1.9378    2.3656   -1.3519 H   0  0  0  0  0  0  0  0  0  0  0  0
    1.4855    0.4889    0.5325 H   0  0  0  0  0  0  0  0  0  0  0  0
    0.0461   -1.4609    1.2150 H   0  0  0  0  0  0  0  0  0  0  0  0
   -4.2090    5.5059   -1.3208 O   0  0  0  0  0  0  0  0  0  0  0  0
   -3.4905    4.5995   -0.8810 C   0  0  0  0  0  0  0  0  0  0  0  0
   -3.5634    3.3586   -1.1304 O   0  0  0  0  0  0  0  0  0  0  0  0
   -2.3389    5.0542    0.0661 C   0  0  0  0  0  0  0  0  0  0  0  0
   -1.7432    4.0069    0.7087 F   0  0  0  0  0  0  0  0  0  0  0  0
   -1.3674    5.6879   -0.6231 F   0  0  0  0  0  0  0  0  0  0  0  0
   -2.7797    5.8955    1.0197 F   0  0  0  0  0  0  0  0  0  0  0  0
  1  2  1  0  0  0  0
  1 11  1  0  0  0  0
  2  3  1  0  0  0  0
  4  1  2  0  0  0  0
  5  6  2  0  0  0  0
  5  4  1  0  0  0  0
  6 10  1  0  0  0  0
  7  9  2  0  0  0  0
  7  6  1  0  0  0  0
  8  7  2  0  0  0  0
 10 14  1  0  0  0  0
 10 11  2  0  0  0  0
 11 15  1  0  0  0  0
 12  4  1  0  0  0  0
 13  5  1  0  0  0  0
 16 17  2  0  0  0  0
 17 19  1  0  0  0  0
 18 17  1  0  0  0  0
 19 20  1  0  0  0  0
 19 22  1  0  0  0  0
 21 19  1  0  0  0  0
M  RAD  3   2   2   3   3  18   2
M  END
