Coordinates from ORCA-job 4-NO2PhN2+~CF3COO-_B3LYPG-6-31G_dp-NX-Scan-d89-09-n800
 OpenBabel11261920383D

 22 21  0  0  0  0  0  0  0  0999 V2000
   -1.8686   -0.0549    0.2870 C   0  0  0  0  0  0  0  0  0  0  0  0
   -2.7095   -1.0059    0.7775 N   0  0  0  0  0  0  0  0  0  0  0  0
   -3.3297   -1.8512    1.1890 N   0  0  0  0  0  0  0  0  0  0  0  0
   -2.2799    0.7533   -0.7989 C   0  0  0  0  0  0  0  0  0  0  0  0
   -1.3171    1.5885   -1.3683 C   0  0  0  0  0  0  0  0  0  0  0  0
   -0.0513    1.6417   -0.8085 C   0  0  0  0  0  0  0  0  0  0  0  0
    0.9532    2.5325   -1.4186 N   0  0  0  0  0  0  0  0  0  0  0  0
    0.6332    3.1248   -2.4426 O   0  0  0  0  0  0  0  0  0  0  0  0
    2.0482    2.5991   -0.8621 O   0  0  0  0  0  0  0  0  0  0  0  0
    0.3284    0.8957    0.3251 C   0  0  0  0  0  0  0  0  0  0  0  0
   -0.5747    0.0287    0.8855 C   0  0  0  0  0  0  0  0  0  0  0  0
   -3.2803    0.7090   -1.2051 H   0  0  0  0  0  0  0  0  0  0  0  0
   -1.5814    2.2200   -2.2039 H   0  0  0  0  0  0  0  0  0  0  0  0
    1.3252    1.0181    0.7285 H   0  0  0  0  0  0  0  0  0  0  0  0
   -0.3289   -0.5795    1.7479 H   0  0  0  0  0  0  0  0  0  0  0  0
   -3.8363    5.2567   -1.0460 O   0  0  0  0  0  0  0  0  0  0  0  0
   -3.3909    4.1791   -0.6471 C   0  0  0  0  0  0  0  0  0  0  0  0
   -3.5938    3.0115   -1.1171 O   0  0  0  0  0  0  0  0  0  0  0  0
   -2.4028    4.2230    0.5591 C   0  0  0  0  0  0  0  0  0  0  0  0
   -2.4729    3.1068    1.3370 F   0  0  0  0  0  0  0  0  0  0  0  0
   -1.1163    4.2829    0.1032 F   0  0  0  0  0  0  0  0  0  0  0  0
   -2.5935    5.2794    1.3567 F   0  0  0  0  0  0  0  0  0  0  0  0
  1  2  1  0  0  0  0
  1 11  1  0  0  0  0
  2  3  1  0  0  0  0
  4  1  2  0  0  0  0
  5  6  2  0  0  0  0
  5  4  1  0  0  0  0
  6 10  1  0  0  0  0
  7  9  2  0  0  0  0
  7  6  1  0  0  0  0
  8  7  2  0  0  0  0
 10 14  1  0  0  0  0
 10 11  2  0  0  0  0
 11 15  1  0  0  0  0
 12  4  1  0  0  0  0
 13  5  1  0  0  0  0
 16 17  1  0  0  0  0
 17 19  1  0  0  0  0
 18 17  2  0  0  0  0
 19 20  1  0  0  0  0
 19 22  1  0  0  0  0
 21 19  1  0  0  0  0
M  RAD  3   2   2   3   3  16   2
M  END
