Coordinates from ORCA-job 4-NO2PhN2+~CF3COO-_B3LYPG-6-31G_dp-NX-Scan-d89-09-n800
 OpenBabel11261920383D

 22 22  0  0  1  0  0  0  0  0999 V2000
   -1.8992    0.5483   -0.1413 C   0  0  0  0  0  0  0  0  0  0  0  0
   -3.0765    0.0232    0.1490 N   0  0  0  0  0  0  0  0  0  0  0  0
   -4.1223   -0.3504    0.3793 N   0  0  0  0  0  0  0  0  0  0  0  0
   -1.9003    1.8488   -0.8830 C   0  0  2  0  0  0  0  0  0  0  0  0
   -0.5698    2.1106   -1.5021 C   0  0  0  0  0  0  0  0  0  0  0  0
    0.5217    1.4309   -1.0926 C   0  0  0  0  0  0  0  0  0  0  0  0
    1.8279    1.7925   -1.6980 N   0  0  0  0  0  0  0  0  0  0  0  0
    1.8416    2.6606   -2.5660 O   0  0  0  0  0  0  0  0  0  0  0  0
    2.8182    1.1954   -1.2813 O   0  0  0  0  0  0  0  0  0  0  0  0
    0.5099    0.3497   -0.1420 C   0  0  0  0  0  0  0  0  0  0  0  0
   -0.6936   -0.0946    0.3013 C   0  0  0  0  0  0  0  0  0  0  0  0
   -2.7175    1.9045   -1.6054 H   0  0  0  0  0  0  0  0  0  0  0  0
   -0.4832    2.8881   -2.2503 H   0  0  0  0  0  0  0  0  0  0  0  0
    1.4436   -0.1020    0.1590 H   0  0  0  0  0  0  0  0  0  0  0  0
   -0.7687   -0.9423    0.9746 H   0  0  0  0  0  0  0  0  0  0  0  0
   -4.3213    2.4121    0.2573 O   0  0  0  0  0  0  0  0  0  0  0  0
   -3.4001    3.1698    0.4590 C   0  0  0  0  0  0  0  0  0  0  0  0
   -2.1455    3.0292    0.0411 O   0  0  0  0  0  0  0  0  0  0  0  0
   -3.5468    4.4763    1.2731 C   0  0  0  0  0  0  0  0  0  0  0  0
   -3.2460    5.5368    0.5035 F   0  0  0  0  0  0  0  0  0  0  0  0
   -4.7986    4.6074    1.7160 F   0  0  0  0  0  0  0  0  0  0  0  0
   -2.7128    4.4644    2.3270 F   0  0  0  0  0  0  0  0  0  0  0  0
  1  2  1  0  0  0  0
  1 11  2  0  0  0  0
  2  3  1  0  0  0  0
  4 12  1  6  0  0  0
  4  1  1  0  0  0  0
  4 18  1  0  0  0  0
  5  6  2  0  0  0  0
  5  4  1  0  0  0  0
  6 10  1  0  0  0  0
  7  9  2  0  0  0  0
  7  6  1  0  0  0  0
  8  7  2  0  0  0  0
 10 14  1  0  0  0  0
 10 11  1  0  0  0  0
 11 15  1  0  0  0  0
 13  5  1  0  0  0  0
 16 17  2  0  0  0  0
 17 19  1  0  0  0  0
 18 17  1  0  0  0  0
 19 21  1  0  0  0  0
 19 22  1  0  0  0  0
 20 19  1  0  0  0  0
M  RAD  3   2   2   3   3  10   2
M  END
