Coordinates from ORCA-job 4-NO2PhN2+~CF3COO-_B3LYPG-6-31G_dp-NX-Scan-d89-09-n800
 OpenBabel11261920383D

 22 22  0  0  0  0  0  0  0  0999 V2000
   -1.1967    0.7315    0.1491 C   0  0  0  0  0  0  0  0  0  0  0  0
   -2.1279    0.4731    1.1777 N   0  0  0  0  0  0  0  0  0  0  0  0
   -3.0309    0.9633    1.7359 N   0  0  0  0  0  0  0  0  0  0  0  0
   -1.1876    1.9165   -0.6094 C   0  0  0  0  0  0  0  0  0  0  0  0
   -0.2113    2.0606   -1.5900 C   0  0  0  0  0  0  0  0  0  0  0  0
    0.7129    1.0367   -1.7904 C   0  0  0  0  0  0  0  0  0  0  0  0
    1.7438    1.2055   -2.8400 N   0  0  0  0  0  0  0  0  0  0  0  0
    1.7256    2.2502   -3.4837 O   0  0  0  0  0  0  0  0  0  0  0  0
    2.5450    0.2874   -2.9920 O   0  0  0  0  0  0  0  0  0  0  0  0
    0.7088   -0.1405   -1.0459 C   0  0  0  0  0  0  0  0  0  0  0  0
   -0.2609   -0.2920   -0.0628 C   0  0  0  0  0  0  0  0  0  0  0  0
   -1.9233    2.6866   -0.4225 H   0  0  0  0  0  0  0  0  0  0  0  0
   -0.1580    2.9538   -2.1999 H   0  0  0  0  0  0  0  0  0  0  0  0
    1.4499   -0.9042   -1.2434 H   0  0  0  0  0  0  0  0  0  0  0  0
   -0.3074   -1.1881    0.5456 H   0  0  0  0  0  0  0  0  0  0  0  0
   -3.4597    2.5572    0.9903 O   0  0  0  0  0  0  0  0  0  0  0  0
   -3.9571    3.3706    1.8933 C   0  0  0  0  0  0  0  0  0  0  0  0
   -4.0280    3.2373    3.0933 O   0  0  0  0  0  0  0  0  0  0  0  0
   -4.4969    4.6484    1.1878 C   0  0  0  0  0  0  0  0  0  0  0  0
   -5.6213    4.3657    0.5020 F   0  0  0  0  0  0  0  0  0  0  0  0
   -4.7710    5.6088    2.0737 F   0  0  0  0  0  0  0  0  0  0  0  0
   -3.5873    5.1305    0.3093 F   0  0  0  0  0  0  0  0  0  0  0  0
  1  2  1  0  0  0  0
  2  3  1  0  0  0  0
  4 12  1  0  0  0  0
  4  1  2  0  0  0  0
  5  4  1  0  0  0  0
  6  5  2  0  0  0  0
  6 10  1  0  0  0  0
  7  6  1  0  0  0  0
  8  7  2  0  0  0  0
  9  7  2  0  0  0  0
 10 11  2  0  0  0  0
 11  1  1  0  0  0  0
 11 15  1  0  0  0  0
 13  5  1  0  0  0  0
 14 10  1  0  0  0  0
 16  3  1  0  0  0  0
 16 17  1  0  0  0  0
 17 18  2  0  0  0  0
 19 17  1  0  0  0  0
 19 21  1  0  0  0  0
 20 19  1  0  0  0  0
 22 19  1  0  0  0  0
M  RAD  2   2   2   3   2
M  END
