Coordinates from ORCA-job 4-NO2PhN2+~CF3COO-_B3LYPG-6-31G_dp-NX-Scan-d89-09-n800
 OpenBabel11261920383D

 22 21  0  0  0  0  0  0  0  0999 V2000
   -1.7858   -0.2209    0.2960 C   0  0  0  0  0  0  0  0  0  0  0  0
   -2.6078   -1.2071    0.7566 N   0  0  0  0  0  0  0  0  0  0  0  0
   -3.2100   -2.0752    1.1461 N   0  0  0  0  0  0  0  0  0  0  0  0
   -2.2636    0.7264   -0.6413 C   0  0  0  0  0  0  0  0  0  0  0  0
   -1.3350    1.6155   -1.1760 C   0  0  0  0  0  0  0  0  0  0  0  0
   -0.0212    1.5776   -0.7253 C   0  0  0  0  0  0  0  0  0  0  0  0
    0.9548    2.5190   -1.3064 N   0  0  0  0  0  0  0  0  0  0  0  0
    0.5788    3.2103   -2.2446 O   0  0  0  0  0  0  0  0  0  0  0  0
    2.0818    2.5250   -0.8117 O   0  0  0  0  0  0  0  0  0  0  0  0
    0.4321    0.6844    0.2609 C   0  0  0  0  0  0  0  0  0  0  0  0
   -0.4442   -0.2403    0.7781 C   0  0  0  0  0  0  0  0  0  0  0  0
   -3.3004    0.7822   -0.9483 H   0  0  0  0  0  0  0  0  0  0  0  0
   -1.6697    2.3556   -1.8895 H   0  0  0  0  0  0  0  0  0  0  0  0
    1.4625    0.7356    0.5887 H   0  0  0  0  0  0  0  0  0  0  0  0
   -0.1393   -0.9640    1.5249 H   0  0  0  0  0  0  0  0  0  0  0  0
   -3.9589    5.3831   -1.2473 O   0  0  0  0  0  0  0  0  0  0  0  0
   -3.4760    4.3512   -0.7736 C   0  0  0  0  0  0  0  0  0  0  0  0
   -3.6167    3.1507   -1.1731 O   0  0  0  0  0  0  0  0  0  0  0  0
   -2.5258    4.4941    0.4537 C   0  0  0  0  0  0  0  0  0  0  0  0
   -2.7505    3.5331    1.3878 F   0  0  0  0  0  0  0  0  0  0  0  0
   -1.2241    4.3412    0.0608 F   0  0  0  0  0  0  0  0  0  0  0  0
   -2.6203    5.6817    1.0618 F   0  0  0  0  0  0  0  0  0  0  0  0
  1  2  1  0  0  0  0
  1 11  1  0  0  0  0
  2  3  1  0  0  0  0
  4  1  2  0  0  0  0
  5  6  2  0  0  0  0
  5  4  1  0  0  0  0
  6 10  1  0  0  0  0
  7  9  2  0  0  0  0
  7  6  1  0  0  0  0
  8  7  2  0  0  0  0
 10 14  1  0  0  0  0
 10 11  2  0  0  0  0
 11 15  1  0  0  0  0
 12  4  1  0  0  0  0
 13  5  1  0  0  0  0
 16 17  2  0  0  0  0
 17 19  1  0  0  0  0
 18 17  1  0  0  0  0
 19 22  1  0  0  0  0
 19 20  1  0  0  0  0
 21 19  1  0  0  0  0
M  RAD  3   2   2   3   3  18   2
M  END
