Coordinates from ORCA-job 4-NO2PhN2+~CF3COO-_B3LYPG-6-31G_dp-NX-Scan-d89-09-n800
 OpenBabel11261920383D

 22 21  0  0  0  0  0  0  0  0999 V2000
   -1.3732    0.6294    0.0603 C   0  0  0  0  0  0  0  0  0  0  0  0
   -2.4066    0.3379    0.9712 N   0  0  0  0  0  0  0  0  0  0  0  0
   -3.3839    0.7130    1.4471 N   0  0  0  0  0  0  0  0  0  0  0  0
   -1.5004    1.7030   -0.8345 C   0  0  0  0  0  0  0  0  0  0  0  0
   -0.4513    1.9381   -1.7172 C   0  0  0  0  0  0  0  0  0  0  0  0
    0.6679    1.1079   -1.6791 C   0  0  0  0  0  0  0  0  0  0  0  0
    1.7763    1.3682   -2.6273 N   0  0  0  0  0  0  0  0  0  0  0  0
    1.6411    2.3079   -3.4044 O   0  0  0  0  0  0  0  0  0  0  0  0
    2.7509    0.6239   -2.5675 O   0  0  0  0  0  0  0  0  0  0  0  0
    0.7918    0.0407   -0.7914 C   0  0  0  0  0  0  0  0  0  0  0  0
   -0.2518   -0.2079    0.0918 C   0  0  0  0  0  0  0  0  0  0  0  0
   -2.3932    2.3173   -0.8113 H   0  0  0  0  0  0  0  0  0  0  0  0
   -0.4889    2.7527   -2.4299 H   0  0  0  0  0  0  0  0  0  0  0  0
    1.6856   -0.5694   -0.8077 H   0  0  0  0  0  0  0  0  0  0  0  0
   -0.2074   -1.0275    0.8000 H   0  0  0  0  0  0  0  0  0  0  0  0
   -3.9886    2.4703    0.6022 O   0  0  0  0  0  0  0  0  0  0  0  0
   -3.7105    3.2741    1.5720 C   0  0  0  0  0  0  0  0  0  0  0  0
   -3.0807    3.0402    2.5950 O   0  0  0  0  0  0  0  0  0  0  0  0
   -4.2561    4.7053    1.3014 C   0  0  0  0  0  0  0  0  0  0  0  0
   -5.5913    4.6907    1.1334 F   0  0  0  0  0  0  0  0  0  0  0  0
   -3.9678    5.5427    2.3040 F   0  0  0  0  0  0  0  0  0  0  0  0
   -3.7015    5.2006    0.1702 F   0  0  0  0  0  0  0  0  0  0  0  0
  1 11  1  0  0  0  0
  1  2  1  0  0  0  0
  2  3  2  0  0  0  0
  4 12  1  0  0  0  0
  4  1  2  0  0  0  0
  5  6  2  0  0  0  0
  5  4  1  0  0  0  0
  6 10  1  0  0  0  0
  7  9  2  0  0  0  0
  7  6  1  0  0  0  0
  8  7  2  0  0  0  0
 10 11  2  0  0  0  0
 11 15  1  0  0  0  0
 13  5  1  0  0  0  0
 14 10  1  0  0  0  0
 16 17  2  0  0  0  0
 17 18  1  0  0  0  0
 19 17  1  0  0  0  0
 19 21  1  0  0  0  0
 20 19  1  0  0  0  0
 22 19  1  0  0  0  0
M  RAD  2   3   2  18   2
M  END
