Coordinates from ORCA-job 4-NO2PhN2+~CF3COO-_B3LYPG-6-31G_dp-NX-Scan-d89-09-n800
 OpenBabel11261920383D

 22 22  0  0  1  0  0  0  0  0999 V2000
   -1.8371    0.2291    0.0754 C   0  0  0  0  0  0  0  0  0  0  0  0
   -2.8570   -0.4999    0.4833 N   0  0  0  0  0  0  0  0  0  0  0  0
   -3.7234   -1.1492    0.8366 N   0  0  0  0  0  0  0  0  0  0  0  0
   -2.1219    1.5181   -0.6296 C   0  0  2  0  0  0  0  0  0  0  0  0
   -0.9215    1.9907   -1.3849 C   0  0  0  0  0  0  0  0  0  0  0  0
    0.3018    1.5012   -1.0990 C   0  0  0  0  0  0  0  0  0  0  0  0
    1.4651    2.0725   -1.8223 N   0  0  0  0  0  0  0  0  0  0  0  0
    1.2527    2.9422   -2.6620 O   0  0  0  0  0  0  0  0  0  0  0  0
    2.5742    1.6332   -1.5253 O   0  0  0  0  0  0  0  0  0  0  0  0
    0.5617    0.4325   -0.1672 C   0  0  0  0  0  0  0  0  0  0  0  0
   -0.4990   -0.2023    0.3891 C   0  0  0  0  0  0  0  0  0  0  0  0
   -3.0050    1.4710   -1.2708 H   0  0  0  0  0  0  0  0  0  0  0  0
   -1.0509    2.7738   -2.1206 H   0  0  0  0  0  0  0  0  0  0  0  0
    1.5824    0.1401    0.0330 H   0  0  0  0  0  0  0  0  0  0  0  0
   -0.3653   -1.0490    1.0541 H   0  0  0  0  0  0  0  0  0  0  0  0
   -3.3150    3.9496   -1.1455 O   0  0  0  0  0  0  0  0  0  0  0  0
   -3.0601    3.6520   -0.0039 C   0  0  0  0  0  0  0  0  0  0  0  0
   -2.4693    2.5362    0.4297 O   0  0  0  0  0  0  0  0  0  0  0  0
   -3.4091    4.5554    1.2025 C   0  0  0  0  0  0  0  0  0  0  0  0
   -2.3013    4.8512    1.9029 F   0  0  0  0  0  0  0  0  0  0  0  0
   -3.9709    5.6900    0.7838 F   0  0  0  0  0  0  0  0  0  0  0  0
   -4.2705    3.9208    2.0190 F   0  0  0  0  0  0  0  0  0  0  0  0
  1 11  2  0  0  0  0
  1  2  1  0  0  0  0
  2  3  1  0  0  0  0
  4 12  1  6  0  0  0
  4  1  1  0  0  0  0
  4 18  1  0  0  0  0
  5  6  2  0  0  0  0
  5  4  1  0  0  0  0
  6 10  1  0  0  0  0
  7  9  2  0  0  0  0
  7  6  1  0  0  0  0
  8  7  2  0  0  0  0
 10 14  1  0  0  0  0
 10 11  1  0  0  0  0
 11 15  1  0  0  0  0
 13  5  1  0  0  0  0
 16 17  2  0  0  0  0
 17 18  1  0  0  0  0
 17 19  1  0  0  0  0
 19 20  1  0  0  0  0
 19 22  1  0  0  0  0
 21 19  1  0  0  0  0
M  RAD  3   2   2   3   3  10   2
M  END
