Coordinates from ORCA-job 4-NO2PhN2+~CF3COO-_B3LYPG-6-31G_dp-NX-Scan-d89-09-n800
 OpenBabel11261920383D

 22 22  0  0  1  0  0  0  0  0999 V2000
   -1.8472    0.2123    0.0803 C   0  0  0  0  0  0  0  0  0  0  0  0
   -2.8406   -0.5602    0.4758 N   0  0  0  0  0  0  0  0  0  0  0  0
   -3.6644   -1.2651    0.8257 N   0  0  0  0  0  0  0  0  0  0  0  0
   -2.1554    1.4913   -0.6357 C   0  0  2  0  0  0  0  0  0  0  0  0
   -0.9636    1.9676   -1.4043 C   0  0  0  0  0  0  0  0  0  0  0  0
    0.2693    1.5141   -1.1011 C   0  0  0  0  0  0  0  0  0  0  0  0
    1.4222    2.0905   -1.8369 N   0  0  0  0  0  0  0  0  0  0  0  0
    1.1935    2.9268   -2.7055 O   0  0  0  0  0  0  0  0  0  0  0  0
    2.5402    1.6901   -1.5186 O   0  0  0  0  0  0  0  0  0  0  0  0
    0.5492    0.4761   -0.1412 C   0  0  0  0  0  0  0  0  0  0  0  0
   -0.5000   -0.1760    0.4161 C   0  0  0  0  0  0  0  0  0  0  0  0
   -3.0414    1.4240   -1.2714 H   0  0  0  0  0  0  0  0  0  0  0  0
   -1.1073    2.7284   -2.1598 H   0  0  0  0  0  0  0  0  0  0  0  0
    1.5752    0.2158    0.0758 H   0  0  0  0  0  0  0  0  0  0  0  0
   -0.3510   -1.0068    1.0980 H   0  0  0  0  0  0  0  0  0  0  0  0
   -3.1510    4.0405   -1.1536 O   0  0  0  0  0  0  0  0  0  0  0  0
   -2.9973    3.6794   -0.0120 C   0  0  0  0  0  0  0  0  0  0  0  0
   -2.5146    2.5115    0.4189 O   0  0  0  0  0  0  0  0  0  0  0  0
   -3.3760    4.5570    1.2051 C   0  0  0  0  0  0  0  0  0  0  0  0
   -2.3240    4.7062    2.0271 F   0  0  0  0  0  0  0  0  0  0  0  0
   -3.7810    5.7612    0.7996 F   0  0  0  0  0  0  0  0  0  0  0  0
   -4.3742    3.9747    1.8959 F   0  0  0  0  0  0  0  0  0  0  0  0
  1 11  2  0  0  0  0
  1  2  1  0  0  0  0
  2  3  1  0  0  0  0
  4 12  1  6  0  0  0
  4  1  1  0  0  0  0
  4 18  1  0  0  0  0
  5  6  2  0  0  0  0
  5  4  1  0  0  0  0
  6 10  1  0  0  0  0
  7  9  2  0  0  0  0
  7  6  1  0  0  0  0
  8  7  2  0  0  0  0
 10 14  1  0  0  0  0
 10 11  1  0  0  0  0
 11 15  1  0  0  0  0
 13  5  1  0  0  0  0
 16 17  2  0  0  0  0
 17 18  1  0  0  0  0
 17 19  1  0  0  0  0
 19 22  1  0  0  0  0
 19 20  1  0  0  0  0
 21 19  1  0  0  0  0
M  RAD  3   2   2   3   3  10   2
M  END
