Coordinates from ORCA-job 4-NO2PhN2+~CF3COO-_B3LYPG-6-31G_dp-NX-Scan-d89-09-n800
 OpenBabel11261920383D

 22 22  0  0  1  0  0  0  0  0999 V2000
   -1.8673    0.1955    0.0756 C   0  0  0  0  0  0  0  0  0  0  0  0
   -2.8328   -0.6271    0.4418 N   0  0  0  0  0  0  0  0  0  0  0  0
   -3.6118   -1.3904    0.7736 N   0  0  0  0  0  0  0  0  0  0  0  0
   -2.1940    1.4634   -0.6550 C   0  0  2  0  0  0  0  0  0  0  0  0
   -1.0062    1.9408   -1.4304 C   0  0  0  0  0  0  0  0  0  0  0  0
    0.2335    1.5293   -1.0962 C   0  0  0  0  0  0  0  0  0  0  0  0
    1.3818    2.1079   -1.8370 N   0  0  0  0  0  0  0  0  0  0  0  0
    1.1443    2.8989   -2.7447 O   0  0  0  0  0  0  0  0  0  0  0  0
    2.5051    1.7543   -1.4836 O   0  0  0  0  0  0  0  0  0  0  0  0
    0.5252    0.5294   -0.1001 C   0  0  0  0  0  0  0  0  0  0  0  0
   -0.5151   -0.1427    0.4495 C   0  0  0  0  0  0  0  0  0  0  0  0
   -3.0791    1.3738   -1.2893 H   0  0  0  0  0  0  0  0  0  0  0  0
   -1.1574    2.6729   -2.2118 H   0  0  0  0  0  0  0  0  0  0  0  0
    1.5538    0.3076    0.1454 H   0  0  0  0  0  0  0  0  0  0  0  0
   -0.3554   -0.9540    1.1521 H   0  0  0  0  0  0  0  0  0  0  0  0
   -2.9982    4.1279   -1.1505 O   0  0  0  0  0  0  0  0  0  0  0  0
   -2.9434    3.7028   -0.0217 C   0  0  0  0  0  0  0  0  0  0  0  0
   -2.5703    2.4882    0.3912 O   0  0  0  0  0  0  0  0  0  0  0  0
   -3.3257    4.5569    1.2119 C   0  0  0  0  0  0  0  0  0  0  0  0
   -2.2881    4.6463    2.0615 F   0  0  0  0  0  0  0  0  0  0  0  0
   -3.6791    5.7856    0.8325 F   0  0  0  0  0  0  0  0  0  0  0  0
   -4.3591    3.9918    1.8633 F   0  0  0  0  0  0  0  0  0  0  0  0
  1  2  1  0  0  0  0
  1 11  2  0  0  0  0
  2  3  1  0  0  0  0
  4 12  1  6  0  0  0
  4  1  1  0  0  0  0
  4 18  1  0  0  0  0
  5  6  2  0  0  0  0
  5  4  1  0  0  0  0
  6 10  1  0  0  0  0
  7  9  2  0  0  0  0
  7  6  1  0  0  0  0
  8  7  2  0  0  0  0
 10 14  1  0  0  0  0
 10 11  1  0  0  0  0
 11 15  1  0  0  0  0
 13  5  1  0  0  0  0
 16 17  2  0  0  0  0
 17 18  1  0  0  0  0
 17 19  1  0  0  0  0
 19 22  1  0  0  0  0
 19 20  1  0  0  0  0
 21 19  1  0  0  0  0
M  RAD  3   2   2   3   3  10   2
M  END
