Coordinates from ORCA-job 4-NO2PhN2+~CF3COO-_B3LYPG-6-31G_dp-NX-Scan-d89-09-n800
 OpenBabel11261920383D

 22 22  0  0  1  0  0  0  0  0999 V2000
   -1.8843    0.1854    0.0736 C   0  0  1  0  0  0  0  0  0  0  0  0
   -2.8231   -0.6800    0.4133 N   0  0  0  0  0  0  0  0  0  0  0  0
   -3.5620   -1.4899    0.7286 N   0  0  0  0  0  0  0  0  0  0  0  0
   -2.2257    1.4414   -0.6738 C   0  0  2  0  0  0  0  0  0  0  0  0
   -1.0407    1.9164   -1.4561 C   0  0  0  0  0  0  0  0  0  0  0  0
    0.2031    1.5417   -1.0948 C   0  0  0  0  0  0  0  0  0  0  0  0
    1.3483    2.1183   -1.8414 N   0  0  0  0  0  0  0  0  0  0  0  0
    1.1059    2.8636   -2.7857 O   0  0  0  0  0  0  0  0  0  0  0  0
    2.4742    1.8094   -1.4555 O   0  0  0  0  0  0  0  0  0  0  0  0
    0.5022    0.5791   -0.0648 C   0  0  0  0  0  0  0  0  0  0  0  0
   -0.5301   -0.1082    0.4808 C   0  0  0  0  0  0  0  0  0  0  0  0
   -3.1095    1.3310   -1.3064 H   0  0  0  0  0  0  0  0  0  0  0  0
   -1.1962    2.6203   -2.2619 H   0  0  0  0  0  0  0  0  0  0  0  0
    1.5314    0.3916    0.2056 H   0  0  0  0  0  0  0  0  0  0  0  0
   -0.3623   -0.8999    1.2036 H   0  0  0  0  0  0  0  0  0  0  0  0
   -2.8694    4.1981   -1.1381 O   0  0  0  0  0  0  0  0  0  0  0  0
   -2.8955    3.7230   -0.0283 C   0  0  0  0  0  0  0  0  0  0  0  0
   -2.6160    2.4745    0.3606 O   0  0  0  0  0  0  0  0  0  0  0  0
   -3.2846    4.5525    1.2210 C   0  0  0  0  0  0  0  0  0  0  0  0
   -2.2680    4.5781    2.1004 F   0  0  0  0  0  0  0  0  0  0  0  0
   -3.5818    5.8046    0.8706 F   0  0  0  0  0  0  0  0  0  0  0  0
   -4.3554    4.0078    1.8272 F   0  0  0  0  0  0  0  0  0  0  0  0
  1  2  1  1  0  0  0
  1 11  1  0  0  0  0
  2  3  1  0  0  0  0
  4 12  1  6  0  0  0
  4  1  1  0  0  0  0
  4 18  1  0  0  0  0
  5  6  2  0  0  0  0
  5  4  1  0  0  0  0
  6 10  1  0  0  0  0
  7  9  2  0  0  0  0
  7  6  1  0  0  0  0
  8  7  2  0  0  0  0
 10 14  1  0  0  0  0
 10 11  2  0  0  0  0
 11 15  1  0  0  0  0
 13  5  1  0  0  0  0
 16 17  2  0  0  0  0
 17 18  1  0  0  0  0
 17 19  1  0  0  0  0
 19 22  1  0  0  0  0
 19 20  1  0  0  0  0
 21 19  1  0  0  0  0
M  RAD  3   1   2   2   2   3   3
M  END
