Coordinates from ORCA-job 4-NO2PhN2+~CF3COO-_B3LYPG-6-31G_dp-NX-Scan-d89-09-n800
 OpenBabel11261920383D

 22 21  0  0  0  0  0  0  0  0999 V2000
   -1.8887    0.1609    0.2808 C   0  0  0  0  0  0  0  0  0  0  0  0
   -2.7702   -0.7053    0.8398 N   0  0  0  0  0  0  0  0  0  0  0  0
   -3.4358   -1.4830    1.3094 N   0  0  0  0  0  0  0  0  0  0  0  0
   -2.2420    0.8386   -0.9101 C   0  0  0  0  0  0  0  0  0  0  0  0
   -1.2272    1.5646   -1.5505 C   0  0  0  0  0  0  0  0  0  0  0  0
    0.0164    1.6496   -0.9599 C   0  0  0  0  0  0  0  0  0  0  0  0
    1.0719    2.4204   -1.6456 N   0  0  0  0  0  0  0  0  0  0  0  0
    0.7998    2.9015   -2.7403 O   0  0  0  0  0  0  0  0  0  0  0  0
    2.1563    2.5106   -1.0728 O   0  0  0  0  0  0  0  0  0  0  0  0
    0.3351    1.0488    0.2795 C   0  0  0  0  0  0  0  0  0  0  0  0
   -0.6133    0.2933    0.9140 C   0  0  0  0  0  0  0  0  0  0  0  0
   -3.2114    0.7108   -1.3669 H   0  0  0  0  0  0  0  0  0  0  0  0
   -1.4368    2.0845   -2.4744 H   0  0  0  0  0  0  0  0  0  0  0  0
    1.3218    1.1951    0.6989 H   0  0  0  0  0  0  0  0  0  0  0  0
   -0.4186   -0.1983    1.8594 H   0  0  0  0  0  0  0  0  0  0  0  0
   -3.6501    5.1825   -0.9387 O   0  0  0  0  0  0  0  0  0  0  0  0
   -3.3160    4.0652   -0.5478 C   0  0  0  0  0  0  0  0  0  0  0  0
   -3.4810    2.9404   -1.1330 O   0  0  0  0  0  0  0  0  0  0  0  0
   -2.5605    3.9788    0.8124 C   0  0  0  0  0  0  0  0  0  0  0  0
   -2.8623    2.8416    1.5035 F   0  0  0  0  0  0  0  0  0  0  0  0
   -1.2133    3.9445    0.6017 F   0  0  0  0  0  0  0  0  0  0  0  0
   -2.8136    5.0140    1.6190 F   0  0  0  0  0  0  0  0  0  0  0  0
  1  2  1  0  0  0  0
  1 11  1  0  0  0  0
  2  3  1  0  0  0  0
  4  1  2  0  0  0  0
  5  6  2  0  0  0  0
  5  4  1  0  0  0  0
  6 10  1  0  0  0  0
  7  9  2  0  0  0  0
  7  6  1  0  0  0  0
  8  7  2  0  0  0  0
 10 14  1  0  0  0  0
 10 11  2  0  0  0  0
 11 15  1  0  0  0  0
 12  4  1  0  0  0  0
 13  5  1  0  0  0  0
 16 17  1  0  0  0  0
 17 19  1  0  0  0  0
 18 17  2  0  0  0  0
 19 20  1  0  0  0  0
 19 22  1  0  0  0  0
 21 19  1  0  0  0  0
M  RAD  3   2   2   3   3  16   2
M  END
