Coordinates from ORCA-job 4-NO2PhN2+~CF3COO-_B3LYPG-6-31G_dp-NX-Scan-d89-09-n800
 OpenBabel11261920383D

 22 22  0  0  1  0  0  0  0  0999 V2000
   -1.8255    0.2546    0.0698 C   0  0  0  0  0  0  0  0  0  0  0  0
   -2.8711   -0.4302    0.4873 N   0  0  0  0  0  0  0  0  0  0  0  0
   -3.7782   -1.0205    0.8417 N   0  0  0  0  0  0  0  0  0  0  0  0
   -2.0846    1.5500   -0.6322 C   0  0  2  0  0  0  0  0  0  0  0  0
   -0.8744    2.0096   -1.3780 C   0  0  0  0  0  0  0  0  0  0  0  0
    0.3376    1.4872   -1.1022 C   0  0  0  0  0  0  0  0  0  0  0  0
    1.5125    2.0432   -1.8186 N   0  0  0  0  0  0  0  0  0  0  0  0
    1.3190    2.9341   -2.6405 O   0  0  0  0  0  0  0  0  0  0  0  0
    2.6114    1.5716   -1.5338 O   0  0  0  0  0  0  0  0  0  0  0  0
    0.5744    0.3988   -0.1868 C   0  0  0  0  0  0  0  0  0  0  0  0
   -0.4987   -0.2150    0.3702 C   0  0  0  0  0  0  0  0  0  0  0  0
   -2.9650    1.5204   -1.2775 H   0  0  0  0  0  0  0  0  0  0  0  0
   -0.9857    2.8054   -2.1034 H   0  0  0  0  0  0  0  0  0  0  0  0
    1.5885    0.0781    0.0029 H   0  0  0  0  0  0  0  0  0  0  0  0
   -0.3823   -1.0710    1.0264 H   0  0  0  0  0  0  0  0  0  0  0  0
   -3.5035    3.8494   -1.1148 O   0  0  0  0  0  0  0  0  0  0  0  0
   -3.1302    3.6220    0.0101 C   0  0  0  0  0  0  0  0  0  0  0  0
   -2.4174    2.5728    0.4261 O   0  0  0  0  0  0  0  0  0  0  0  0
   -3.4457    4.5461    1.2097 C   0  0  0  0  0  0  0  0  0  0  0  0
   -2.3096    4.9519    1.8005 F   0  0  0  0  0  0  0  0  0  0  0  0
   -4.1272    5.6175    0.8022 F   0  0  0  0  0  0  0  0  0  0  0  0
   -4.1839    3.8831    2.1191 F   0  0  0  0  0  0  0  0  0  0  0  0
  1 11  2  0  0  0  0
  1  2  1  0  0  0  0
  2  3  1  0  0  0  0
  4 12  1  6  0  0  0
  4  1  1  0  0  0  0
  4 18  1  0  0  0  0
  5  6  2  0  0  0  0
  5  4  1  0  0  0  0
  6 10  1  0  0  0  0
  7  9  2  0  0  0  0
  7  6  1  0  0  0  0
  8  7  2  0  0  0  0
 10 14  1  0  0  0  0
 10 11  1  0  0  0  0
 11 15  1  0  0  0  0
 13  5  1  0  0  0  0
 16 17  2  0  0  0  0
 17 18  1  0  0  0  0
 17 19  1  0  0  0  0
 19 20  1  0  0  0  0
 19 22  1  0  0  0  0
 21 19  1  0  0  0  0
M  RAD  3   2   2   3   3  10   2
M  END
