Coordinates from ORCA-job 4-NO2PhN2+~CF3COO-_B3LYPG-6-31G_dp-NX-Scan-d89-09-n800
 OpenBabel11261920383D

 22 22  0  0  0  0  0  0  0  0999 V2000
   -1.0338    1.0086    0.4683 C   0  0  0  0  0  0  0  0  0  0  0  0
   -1.7332    0.7774    1.6900 N   0  0  0  0  0  0  0  0  0  0  0  0
   -2.7006    1.5457    2.0463 N   0  0  0  0  0  0  0  0  0  0  0  0
   -0.7655    2.2452   -0.1592 C   0  0  0  0  0  0  0  0  0  0  0  0
    0.0291    2.2938   -1.2999 C   0  0  0  0  0  0  0  0  0  0  0  0
    0.5443    1.1110   -1.8253 C   0  0  0  0  0  0  0  0  0  0  0  0
    1.3691    1.1693   -3.0392 N   0  0  0  0  0  0  0  0  0  0  0  0
    1.5627    2.2743   -3.5465 O   0  0  0  0  0  0  0  0  0  0  0  0
    1.8159    0.1090   -3.4763 O   0  0  0  0  0  0  0  0  0  0  0  0
    0.3033   -0.1250   -1.2253 C   0  0  0  0  0  0  0  0  0  0  0  0
   -0.4712   -0.1633   -0.0754 C   0  0  0  0  0  0  0  0  0  0  0  0
   -1.1600    3.1726    0.2329 H   0  0  0  0  0  0  0  0  0  0  0  0
    0.2513    3.2325   -1.7918 H   0  0  0  0  0  0  0  0  0  0  0  0
    0.7300   -1.0210   -1.6576 H   0  0  0  0  0  0  0  0  0  0  0  0
   -0.6618   -1.1006    0.4358 H   0  0  0  0  0  0  0  0  0  0  0  0
   -3.0139    2.3366    1.4304 O   0  0  0  0  0  0  0  0  0  0  0  0
   -4.1456    3.1738    1.8988 C   0  0  0  0  0  0  0  0  0  0  0  0
   -4.7073    2.9856    2.9178 O   0  0  0  0  0  0  0  0  0  0  0  0
   -4.3706    4.2492    0.8253 C   0  0  0  0  0  0  0  0  0  0  0  0
   -4.7145    3.6680   -0.3297 F   0  0  0  0  0  0  0  0  0  0  0  0
   -5.3339    5.0764    1.2163 F   0  0  0  0  0  0  0  0  0  0  0  0
   -3.2332    4.9402    0.6426 F   0  0  0  0  0  0  0  0  0  0  0  0
  1  2  1  0  0  0  0
  2  3  2  0  0  0  0
  4 12  1  0  0  0  0
  4  1  2  0  0  0  0
  5  4  1  0  0  0  0
  6  5  2  0  0  0  0
  6 10  1  0  0  0  0
  7  6  1  0  0  0  0
  8  7  2  0  0  0  0
  9  7  2  0  0  0  0
 10 11  2  0  0  0  0
 11 15  1  0  0  0  0
 11  1  1  0  0  0  0
 13  5  1  0  0  0  0
 14 10  1  0  0  0  0
 16 17  1  0  0  0  0
 16  3  1  0  0  0  0
 17 18  2  0  0  0  0
 19 21  1  0  0  0  0
 19 17  1  0  0  0  0
 20 19  1  0  0  0  0
 22 19  1  0  0  0  0
M  END
