Coordinates from ORCA-job 4-NO2PhN2+~CF3COO-_B3LYPG-6-31G_dp-NX-Scan-d89-09-n800
 OpenBabel11261920383D

 22 22  0  0  1  0  0  0  0  0999 V2000
   -1.8312    0.2391    0.0738 C   0  0  0  0  0  0  0  0  0  0  0  0
   -2.8630   -0.4688    0.4876 N   0  0  0  0  0  0  0  0  0  0  0  0
   -3.7494   -1.0898    0.8421 N   0  0  0  0  0  0  0  0  0  0  0  0
   -2.1055    1.5312   -0.6289 C   0  0  2  0  0  0  0  0  0  0  0  0
   -0.9013    1.9998   -1.3798 C   0  0  0  0  0  0  0  0  0  0  0  0
    0.3173    1.4951   -1.1002 C   0  0  0  0  0  0  0  0  0  0  0  0
    1.4852    2.0611   -1.8203 N   0  0  0  0  0  0  0  0  0  0  0  0
    1.2804    2.9420   -2.6501 O   0  0  0  0  0  0  0  0  0  0  0  0
    2.5901    1.6068   -1.5306 O   0  0  0  0  0  0  0  0  0  0  0  0
    0.5679    0.4160   -0.1778 C   0  0  0  0  0  0  0  0  0  0  0  0
   -0.4978   -0.2101    0.3794 C   0  0  0  0  0  0  0  0  0  0  0  0
   -2.9874    1.4918   -1.2719 H   0  0  0  0  0  0  0  0  0  0  0  0
   -1.0237    2.7899   -2.1093 H   0  0  0  0  0  0  0  0  0  0  0  0
    1.5859    0.1105    0.0162 H   0  0  0  0  0  0  0  0  0  0  0  0
   -0.3711   -1.0617    1.0394 H   0  0  0  0  0  0  0  0  0  0  0  0
   -3.3921    3.9068   -1.1356 O   0  0  0  0  0  0  0  0  0  0  0  0
   -3.0890    3.6389    0.0016 C   0  0  0  0  0  0  0  0  0  0  0  0
   -2.4476    2.5500    0.4310 O   0  0  0  0  0  0  0  0  0  0  0  0
   -3.4261    4.5516    1.2042 C   0  0  0  0  0  0  0  0  0  0  0  0
   -2.3048    4.8961    1.8593 F   0  0  0  0  0  0  0  0  0  0  0  0
   -4.0401    5.6594    0.7869 F   0  0  0  0  0  0  0  0  0  0  0  0
   -4.2363    3.9036    2.0615 F   0  0  0  0  0  0  0  0  0  0  0  0
  1 11  2  0  0  0  0
  1  2  1  0  0  0  0
  2  3  1  0  0  0  0
  4 12  1  6  0  0  0
  4  1  1  0  0  0  0
  4 18  1  0  0  0  0
  5  6  2  0  0  0  0
  5  4  1  0  0  0  0
  6 10  1  0  0  0  0
  7  9  2  0  0  0  0
  7  6  1  0  0  0  0
  8  7  2  0  0  0  0
 10 14  1  0  0  0  0
 10 11  1  0  0  0  0
 11 15  1  0  0  0  0
 13  5  1  0  0  0  0
 16 17  2  0  0  0  0
 17 18  1  0  0  0  0
 17 19  1  0  0  0  0
 19 20  1  0  0  0  0
 19 22  1  0  0  0  0
 21 19  1  0  0  0  0
M  RAD  3   2   2   3   3  10   2
M  END
