Coordinates from ORCA-job 4-NO2PhN2+~CF3COO-_B3LYPG-6-31G_dp-NX-Scan-d89-09-n800
 OpenBabel11261920383D

 22 22  0  0  1  0  0  0  0  0999 V2000
   -1.8625    0.1991    0.0769 C   0  0  0  0  0  0  0  0  0  0  0  0
   -2.8344   -0.6122    0.4507 N   0  0  0  0  0  0  0  0  0  0  0  0
   -3.6234   -1.3628    0.7875 N   0  0  0  0  0  0  0  0  0  0  0  0
   -2.1852    1.4697   -0.6501 C   0  0  2  0  0  0  0  0  0  0  0  0
   -0.9965    1.9470   -1.4241 C   0  0  0  0  0  0  0  0  0  0  0  0
    0.2418    1.5256   -1.0974 C   0  0  0  0  0  0  0  0  0  0  0  0
    1.3909    2.1041   -1.8371 N   0  0  0  0  0  0  0  0  0  0  0  0
    1.1550    2.9065   -2.7353 O   0  0  0  0  0  0  0  0  0  0  0  0
    2.5133    1.7390   -1.4927 O   0  0  0  0  0  0  0  0  0  0  0  0
    0.5312    0.5165   -0.1101 C   0  0  0  0  0  0  0  0  0  0  0  0
   -0.5111   -0.1510    0.4414 C   0  0  0  0  0  0  0  0  0  0  0  0
   -3.0706    1.3854   -1.2846 H   0  0  0  0  0  0  0  0  0  0  0  0
   -1.1464    2.6862   -2.1991 H   0  0  0  0  0  0  0  0  0  0  0  0
    1.5594    0.2854    0.1284 H   0  0  0  0  0  0  0  0  0  0  0  0
   -0.3537   -0.9671    1.1389 H   0  0  0  0  0  0  0  0  0  0  0  0
   -3.0316    4.1097   -1.1522 O   0  0  0  0  0  0  0  0  0  0  0  0
   -2.9550    3.6983   -0.0196 C   0  0  0  0  0  0  0  0  0  0  0  0
   -2.5575    2.4933    0.3983 O   0  0  0  0  0  0  0  0  0  0  0  0
   -3.3380    4.5575    1.2101 C   0  0  0  0  0  0  0  0  0  0  0  0
   -2.2986    4.6590    2.0558 F   0  0  0  0  0  0  0  0  0  0  0  0
   -3.7012    5.7814    0.8245 F   0  0  0  0  0  0  0  0  0  0  0  0
   -4.3655    3.9887    1.8679 F   0  0  0  0  0  0  0  0  0  0  0  0
  1 11  2  0  0  0  0
  1  2  1  0  0  0  0
  2  3  1  0  0  0  0
  4 12  1  6  0  0  0
  4  1  1  0  0  0  0
  4 18  1  0  0  0  0
  5  6  2  0  0  0  0
  5  4  1  0  0  0  0
  6 10  1  0  0  0  0
  7  9  2  0  0  0  0
  7  6  1  0  0  0  0
  8  7  2  0  0  0  0
 10 14  1  0  0  0  0
 10 11  1  0  0  0  0
 11 15  1  0  0  0  0
 13  5  1  0  0  0  0
 16 17  2  0  0  0  0
 17 18  1  0  0  0  0
 17 19  1  0  0  0  0
 19 22  1  0  0  0  0
 19 20  1  0  0  0  0
 21 19  1  0  0  0  0
M  RAD  3   2   2   3   3  10   2
M  END
