Coordinates from ORCA-job 4-NO2PhN2+~CF3COO-_B3LYPG-6-31G_dp-NX-Scan-d89-09-n800
 OpenBabel11261920383D

 22 22  0  0  1  0  0  0  0  0999 V2000
   -1.8519    0.4011   -0.0355 C   0  0  0  0  0  0  0  0  0  0  0  0
   -2.9678   -0.2065    0.3142 N   0  0  0  0  0  0  0  0  0  0  0  0
   -3.9381   -0.7227    0.6116 N   0  0  0  0  0  0  0  0  0  0  0  0
   -1.9742    1.7078   -0.7575 C   0  0  2  0  0  0  0  0  0  0  0  0
   -0.6968    2.0597   -1.4448 C   0  0  0  0  0  0  0  0  0  0  0  0
    0.4563    1.4517   -1.0991 C   0  0  0  0  0  0  0  0  0  0  0  0
    1.7042    1.9028   -1.7629 N   0  0  0  0  0  0  0  0  0  0  0  0
    1.6187    2.7793   -2.6183 O   0  0  0  0  0  0  0  0  0  0  0  0
    2.7504    1.3681   -1.4020 O   0  0  0  0  0  0  0  0  0  0  0  0
    0.5620    0.3667   -0.1562 C   0  0  0  0  0  0  0  0  0  0  0  0
   -0.5827   -0.1589    0.3466 C   0  0  0  0  0  0  0  0  0  0  0  0
   -2.8332    1.7356   -1.4296 H   0  0  0  0  0  0  0  0  0  0  0  0
   -0.7016    2.8465   -2.1885 H   0  0  0  0  0  0  0  0  0  0  0  0
    1.5380   -0.0226    0.0946 H   0  0  0  0  0  0  0  0  0  0  0  0
   -0.5660   -1.0099    1.0194 H   0  0  0  0  0  0  0  0  0  0  0  0
   -4.3192    3.1940   -0.5880 O   0  0  0  0  0  0  0  0  0  0  0  0
   -3.4137    3.4201    0.1769 C   0  0  0  0  0  0  0  0  0  0  0  0
   -2.2301    2.8039    0.2455 O   0  0  0  0  0  0  0  0  0  0  0  0
   -3.4859    4.5163    1.2661 C   0  0  0  0  0  0  0  0  0  0  0  0
   -2.5051    5.4166    1.0863 F   0  0  0  0  0  0  0  0  0  0  0  0
   -4.6619    5.1434    1.2147 F   0  0  0  0  0  0  0  0  0  0  0  0
   -3.3410    3.9663    2.4849 F   0  0  0  0  0  0  0  0  0  0  0  0
  1  2  1  0  0  0  0
  1 11  2  0  0  0  0
  2  3  1  0  0  0  0
  4 12  1  6  0  0  0
  4  1  1  0  0  0  0
  4 18  1  0  0  0  0
  5  6  2  0  0  0  0
  5  4  1  0  0  0  0
  6 10  1  0  0  0  0
  7  9  2  0  0  0  0
  7  6  1  0  0  0  0
  8  7  2  0  0  0  0
 10 14  1  0  0  0  0
 10 11  1  0  0  0  0
 11 15  1  0  0  0  0
 13  5  1  0  0  0  0
 16 17  2  0  0  0  0
 17 18  1  0  0  0  0
 17 19  1  0  0  0  0
 19 22  1  0  0  0  0
 20 19  1  0  0  0  0
 21 19  1  0  0  0  0
M  RAD  3   2   2   3   3  10   2
M  END
