Coordinates from ORCA-job 4-NO2PhN2+~CF3COO-_B3LYPG-6-31G_dp-NX-Scan-d89-09-n800
 OpenBabel11261920383D

 22 22  0  0  0  0  0  0  0  0999 V2000
   -1.0133    0.9943    0.4638 C   0  0  0  0  0  0  0  0  0  0  0  0
   -1.7155    0.7610    1.6826 N   0  0  0  0  0  0  0  0  0  0  0  0
   -2.6649    1.4182    2.1296 N   0  0  0  0  0  0  0  0  0  0  0  0
   -0.7580    2.2360   -0.1521 C   0  0  0  0  0  0  0  0  0  0  0  0
    0.0365    2.2858   -1.2927 C   0  0  0  0  0  0  0  0  0  0  0  0
    0.5499    1.1028   -1.8199 C   0  0  0  0  0  0  0  0  0  0  0  0
    1.3752    1.1658   -3.0400 N   0  0  0  0  0  0  0  0  0  0  0  0
    1.5701    2.2732   -3.5372 O   0  0  0  0  0  0  0  0  0  0  0  0
    1.8187    0.1065   -3.4789 O   0  0  0  0  0  0  0  0  0  0  0  0
    0.3173   -0.1360   -1.2267 C   0  0  0  0  0  0  0  0  0  0  0  0
   -0.4477   -0.1778   -0.0686 C   0  0  0  0  0  0  0  0  0  0  0  0
   -1.1667    3.1527    0.2463 H   0  0  0  0  0  0  0  0  0  0  0  0
    0.2553    3.2250   -1.7847 H   0  0  0  0  0  0  0  0  0  0  0  0
    0.7466   -1.0288   -1.6624 H   0  0  0  0  0  0  0  0  0  0  0  0
   -0.6269   -1.1147    0.4472 H   0  0  0  0  0  0  0  0  0  0  0  0
   -3.0616    2.4204    1.3495 O   0  0  0  0  0  0  0  0  0  0  0  0
   -4.1086    3.1632    1.8533 C   0  0  0  0  0  0  0  0  0  0  0  0
   -4.6909    2.9952    2.8781 O   0  0  0  0  0  0  0  0  0  0  0  0
   -4.4042    4.2811    0.8292 C   0  0  0  0  0  0  0  0  0  0  0  0
   -4.8481    3.7485   -0.3199 F   0  0  0  0  0  0  0  0  0  0  0  0
   -5.3239    5.1108    1.3129 F   0  0  0  0  0  0  0  0  0  0  0  0
   -3.2788    4.9761    0.5687 F   0  0  0  0  0  0  0  0  0  0  0  0
  1  2  1  0  0  0  0
  2  3  1  0  0  0  0
  4 12  1  0  0  0  0
  4  1  2  0  0  0  0
  5  4  1  0  0  0  0
  6  5  2  0  0  0  0
  6 10  1  0  0  0  0
  7  6  1  0  0  0  0
  8  7  2  0  0  0  0
  9  7  2  0  0  0  0
 10 11  2  0  0  0  0
 11 15  1  0  0  0  0
 11  1  1  0  0  0  0
 13  5  1  0  0  0  0
 14 10  1  0  0  0  0
 16 17  1  0  0  0  0
 16  3  1  0  0  0  0
 17 18  2  0  0  0  0
 19 21  1  0  0  0  0
 19 17  1  0  0  0  0
 20 19  1  0  0  0  0
 22 19  1  0  0  0  0
M  RAD  2   2   2   3   2
M  END
