Coordinates from ORCA-job 4-NO2PhN2+~CF3COO-_B3LYPG-6-31G_dp-NX-Scan-d89-09-n800
 OpenBabel11261920383D

 22 21  0  0  0  0  0  0  0  0999 V2000
   -1.7448   -0.3137    0.2951 C   0  0  0  0  0  0  0  0  0  0  0  0
   -2.5488   -1.3211    0.7440 N   0  0  0  0  0  0  0  0  0  0  0  0
   -3.1370   -2.2033    1.1239 N   0  0  0  0  0  0  0  0  0  0  0  0
   -2.2582    0.6806   -0.5726 C   0  0  0  0  0  0  0  0  0  0  0  0
   -1.3561    1.6042   -1.0903 C   0  0  0  0  0  0  0  0  0  0  0  0
   -0.0246    1.5482   -0.6907 C   0  0  0  0  0  0  0  0  0  0  0  0
    0.9284    2.5219   -1.2579 N   0  0  0  0  0  0  0  0  0  0  0  0
    0.5211    3.2486   -2.1548 O   0  0  0  0  0  0  0  0  0  0  0  0
    2.0686    2.5161   -0.7936 O   0  0  0  0  0  0  0  0  0  0  0  0
    0.4674    0.6048    0.2256 C   0  0  0  0  0  0  0  0  0  0  0  0
   -0.3865   -0.3535    0.7227 C   0  0  0  0  0  0  0  0  0  0  0  0
   -3.3070    0.7502   -0.8358 H   0  0  0  0  0  0  0  0  0  0  0  0
   -1.7313    2.3832   -1.7420 H   0  0  0  0  0  0  0  0  0  0  0  0
    1.5094    0.6418    0.5167 H   0  0  0  0  0  0  0  0  0  0  0  0
   -0.0500   -1.1171    1.4141 H   0  0  0  0  0  0  0  0  0  0  0  0
   -3.9449    5.4626   -1.3612 O   0  0  0  0  0  0  0  0  0  0  0  0
   -3.4725    4.4482   -0.8392 C   0  0  0  0  0  0  0  0  0  0  0  0
   -3.5968    3.2360   -1.2044 O   0  0  0  0  0  0  0  0  0  0  0  0
   -2.5747    4.6299    0.4213 C   0  0  0  0  0  0  0  0  0  0  0  0
   -2.9328    3.7830    1.4198 F   0  0  0  0  0  0  0  0  0  0  0  0
   -1.2715    4.3351    0.1237 F   0  0  0  0  0  0  0  0  0  0  0  0
   -2.5970    5.8735    0.9140 F   0  0  0  0  0  0  0  0  0  0  0  0
  1 11  1  0  0  0  0
  1  2  1  0  0  0  0
  2  3  1  0  0  0  0
  4  1  2  0  0  0  0
  5  6  2  0  0  0  0
  5  4  1  0  0  0  0
  6 10  1  0  0  0  0
  7  9  2  0  0  0  0
  7  6  1  0  0  0  0
  8  7  2  0  0  0  0
 10 14  1  0  0  0  0
 10 11  2  0  0  0  0
 11 15  1  0  0  0  0
 12  4  1  0  0  0  0
 13  5  1  0  0  0  0
 16 17  2  0  0  0  0
 17 19  1  0  0  0  0
 18 17  1  0  0  0  0
 19 22  1  0  0  0  0
 19 20  1  0  0  0  0
 21 19  1  0  0  0  0
M  RAD  3   2   2   3   3  18   2
M  END
