Coordinates from ORCA-job 4-NO2PhN2+~CF3COO-_B3LYPG-6-31G_dp-NX-Scan-d89-09-n800
 OpenBabel11261920383D

 22 22  0  0  1  0  0  0  0  0999 V2000
   -1.8229    0.2824    0.0555 C   0  0  0  0  0  0  0  0  0  0  0  0
   -2.8879   -0.3741    0.4685 N   0  0  0  0  0  0  0  0  0  0  0  0
   -3.8204   -0.9281    0.8154 N   0  0  0  0  0  0  0  0  0  0  0  0
   -2.0545    1.5818   -0.6486 C   0  0  2  0  0  0  0  0  0  0  0  0
   -0.8317    2.0222   -1.3840 C   0  0  0  0  0  0  0  0  0  0  0  0
    0.3688    1.4767   -1.1025 C   0  0  0  0  0  0  0  0  0  0  0  0
    1.5580    2.0134   -1.8097 N   0  0  0  0  0  0  0  0  0  0  0  0
    1.3850    2.9073   -2.6332 O   0  0  0  0  0  0  0  0  0  0  0  0
    2.6460    1.5186   -1.5228 O   0  0  0  0  0  0  0  0  0  0  0  0
    0.5797    0.3811   -0.1893 C   0  0  0  0  0  0  0  0  0  0  0  0
   -0.5076   -0.2137    0.3614 C   0  0  0  0  0  0  0  0  0  0  0  0
   -2.9315    1.5675   -1.2985 H   0  0  0  0  0  0  0  0  0  0  0  0
   -0.9217    2.8209   -2.1095 H   0  0  0  0  0  0  0  0  0  0  0  0
    1.5866    0.0408    0.0044 H   0  0  0  0  0  0  0  0  0  0  0  0
   -0.4104   -1.0727    1.0168 H   0  0  0  0  0  0  0  0  0  0  0  0
   -3.7037    3.7441   -1.0581 O   0  0  0  0  0  0  0  0  0  0  0  0
   -3.2017    3.5909    0.0285 C   0  0  0  0  0  0  0  0  0  0  0  0
   -2.3703    2.6155    0.4035 O   0  0  0  0  0  0  0  0  0  0  0  0
   -3.4663    4.5371    1.2232 C   0  0  0  0  0  0  0  0  0  0  0  0
   -2.3124    5.0580    1.6721 F   0  0  0  0  0  0  0  0  0  0  0  0
   -4.2752    5.5315    0.8552 F   0  0  0  0  0  0  0  0  0  0  0  0
   -4.0456    3.8577    2.2301 F   0  0  0  0  0  0  0  0  0  0  0  0
  1 11  2  0  0  0  0
  1  2  1  0  0  0  0
  2  3  1  0  0  0  0
  4 12  1  6  0  0  0
  4  1  1  0  0  0  0
  4 18  1  0  0  0  0
  5  6  2  0  0  0  0
  5  4  1  0  0  0  0
  6 10  1  0  0  0  0
  7  9  2  0  0  0  0
  7  6  1  0  0  0  0
  8  7  2  0  0  0  0
 10 14  1  0  0  0  0
 10 11  1  0  0  0  0
 11 15  1  0  0  0  0
 13  5  1  0  0  0  0
 16 17  2  0  0  0  0
 17 18  1  0  0  0  0
 17 19  1  0  0  0  0
 19 20  1  0  0  0  0
 19 22  1  0  0  0  0
 21 19  1  0  0  0  0
M  RAD  3   2   2   3   3  10   2
M  END
