Coordinates from ORCA-job 4-NO2PhN2+~CF3COO-_B3LYPG-6-31G_dp-NX-Scan-d89-09-n800
 OpenBabel11261920383D

 22 22  0  0  0  0  0  0  0  0999 V2000
   -1.1607    0.7525    0.1761 C   0  0  0  0  0  0  0  0  0  0  0  0
   -2.0721    0.5051    1.2249 N   0  0  0  0  0  0  0  0  0  0  0  0
   -2.9622    1.0057    1.7968 N   0  0  0  0  0  0  0  0  0  0  0  0
   -1.1337    1.9474   -0.5667 C   0  0  0  0  0  0  0  0  0  0  0  0
   -0.1774    2.0760   -1.5690 C   0  0  0  0  0  0  0  0  0  0  0  0
    0.7099    1.0278   -1.8067 C   0  0  0  0  0  0  0  0  0  0  0  0
    1.7188    1.1804   -2.8798 N   0  0  0  0  0  0  0  0  0  0  0  0
    1.7166    2.2342   -3.5087 O   0  0  0  0  0  0  0  0  0  0  0  0
    2.4869    0.2403   -3.0652 O   0  0  0  0  0  0  0  0  0  0  0  0
    0.6886   -0.1590   -1.0778 C   0  0  0  0  0  0  0  0  0  0  0  0
   -0.2600   -0.2944   -0.0721 C   0  0  0  0  0  0  0  0  0  0  0  0
   -1.8413    2.7362   -0.3531 H   0  0  0  0  0  0  0  0  0  0  0  0
   -0.1122    2.9758   -2.1681 H   0  0  0  0  0  0  0  0  0  0  0  0
    1.4009   -0.9418   -1.3038 H   0  0  0  0  0  0  0  0  0  0  0  0
   -0.3178   -1.1965    0.5263 H   0  0  0  0  0  0  0  0  0  0  0  0
   -3.3790    2.5938    1.0564 O   0  0  0  0  0  0  0  0  0  0  0  0
   -4.0053    3.3696    1.9132 C   0  0  0  0  0  0  0  0  0  0  0  0
   -4.2058    3.2099    3.0944 O   0  0  0  0  0  0  0  0  0  0  0  0
   -4.5169    4.6371    1.1688 C   0  0  0  0  0  0  0  0  0  0  0  0
   -5.5590    4.3209    0.3752 F   0  0  0  0  0  0  0  0  0  0  0  0
   -4.9108    5.5767    2.0315 F   0  0  0  0  0  0  0  0  0  0  0  0
   -3.5467    5.1614    0.3857 F   0  0  0  0  0  0  0  0  0  0  0  0
  1  2  1  0  0  0  0
  2  3  1  0  0  0  0
  4 12  1  0  0  0  0
  4  1  2  0  0  0  0
  5  4  1  0  0  0  0
  6  5  2  0  0  0  0
  6 10  1  0  0  0  0
  7  6  1  0  0  0  0
  8  7  2  0  0  0  0
  9  7  2  0  0  0  0
 10 11  2  0  0  0  0
 11  1  1  0  0  0  0
 11 15  1  0  0  0  0
 13  5  1  0  0  0  0
 14 10  1  0  0  0  0
 16  3  1  0  0  0  0
 16 17  1  0  0  0  0
 17 18  2  0  0  0  0
 19 17  1  0  0  0  0
 19 21  1  0  0  0  0
 20 19  1  0  0  0  0
 22 19  1  0  0  0  0
M  RAD  2   2   2   3   2
M  END
