Coordinates from ORCA-job 4-NO2PhN2+~CF3COO-_B3LYPG-6-31G_dp-NX-Scan-d89-09-n800
 OpenBabel11261920383D

 22 22  0  0  1  0  0  0  0  0999 V2000
   -1.8531    0.2065    0.0783 C   0  0  0  0  0  0  0  0  0  0  0  0
   -2.8383   -0.5814    0.4652 N   0  0  0  0  0  0  0  0  0  0  0  0
   -3.6491   -1.3046    0.8097 N   0  0  0  0  0  0  0  0  0  0  0  0
   -2.1671    1.4826   -0.6418 C   0  0  2  0  0  0  0  0  0  0  0  0
   -0.9764    1.9595   -1.4123 C   0  0  0  0  0  0  0  0  0  0  0  0
    0.2587    1.5189   -1.0992 C   0  0  0  0  0  0  0  0  0  0  0  0
    1.4102    2.0963   -1.8363 N   0  0  0  0  0  0  0  0  0  0  0  0
    1.1786    2.9185   -2.7175 O   0  0  0  0  0  0  0  0  0  0  0  0
    2.5300    1.7094   -1.5077 O   0  0  0  0  0  0  0  0  0  0  0  0
    0.5424    0.4924   -0.1282 C   0  0  0  0  0  0  0  0  0  0  0  0
   -0.5041   -0.1663    0.4262 C   0  0  0  0  0  0  0  0  0  0  0  0
   -3.0528    1.4085   -1.2772 H   0  0  0  0  0  0  0  0  0  0  0  0
   -1.1226    2.7116   -2.1758 H   0  0  0  0  0  0  0  0  0  0  0  0
    1.5694    0.2439    0.0977 H   0  0  0  0  0  0  0  0  0  0  0  0
   -0.3517   -0.9912    1.1143 H   0  0  0  0  0  0  0  0  0  0  0  0
   -3.1077    4.0683   -1.1540 O   0  0  0  0  0  0  0  0  0  0  0  0
   -2.9837    3.6864   -0.0153 C   0  0  0  0  0  0  0  0  0  0  0  0
   -2.5322    2.5038    0.4108 O   0  0  0  0  0  0  0  0  0  0  0  0
   -3.3605    4.5575    1.2073 C   0  0  0  0  0  0  0  0  0  0  0  0
   -2.3114    4.6871    2.0367 F   0  0  0  0  0  0  0  0  0  0  0  0
   -3.7485    5.7700    0.8099 F   0  0  0  0  0  0  0  0  0  0  0  0
   -4.3697    3.9817    1.8873 F   0  0  0  0  0  0  0  0  0  0  0  0
  1 11  2  0  0  0  0
  1  2  1  0  0  0  0
  2  3  1  0  0  0  0
  4 12  1  6  0  0  0
  4  1  1  0  0  0  0
  4 18  1  0  0  0  0
  5  6  2  0  0  0  0
  5  4  1  0  0  0  0
  6 10  1  0  0  0  0
  7  9  2  0  0  0  0
  7  6  1  0  0  0  0
  8  7  2  0  0  0  0
 10 14  1  0  0  0  0
 10 11  1  0  0  0  0
 11 15  1  0  0  0  0
 13  5  1  0  0  0  0
 16 17  2  0  0  0  0
 17 18  1  0  0  0  0
 17 19  1  0  0  0  0
 19 22  1  0  0  0  0
 19 20  1  0  0  0  0
 21 19  1  0  0  0  0
M  RAD  3   2   2   3   3  10   2
M  END
