Coordinates from ORCA-job 4-NO2PhN2+~CF3COO-_B3LYPG-6-31G_dp-NX-Scan-d89-09-n800
 OpenBabel11261920383D

 22 22  0  0  0  0  0  0  0  0999 V2000
   -1.1101    0.8221    0.2521 C   0  0  0  0  0  0  0  0  0  0  0  0
   -1.9660    0.5779    1.3498 N   0  0  0  0  0  0  0  0  0  0  0  0
   -2.8526    1.1186    1.9179 N   0  0  0  0  0  0  0  0  0  0  0  0
   -1.0347    2.0330   -0.4632 C   0  0  0  0  0  0  0  0  0  0  0  0
   -0.1231    2.1301   -1.5097 C   0  0  0  0  0  0  0  0  0  0  0  0
    0.6774    1.0337   -1.8249 C   0  0  0  0  0  0  0  0  0  0  0  0
    1.6357    1.1519   -2.9462 N   0  0  0  0  0  0  0  0  0  0  0  0
    1.6755    2.2237   -3.5434 O   0  0  0  0  0  0  0  0  0  0  0  0
    2.3253    0.1681   -3.2020 O   0  0  0  0  0  0  0  0  0  0  0  0
    0.6134   -0.1693   -1.1262 C   0  0  0  0  0  0  0  0  0  0  0  0
   -0.2864   -0.2682   -0.0728 C   0  0  0  0  0  0  0  0  0  0  0  0
   -1.6723    2.8643   -0.2024 H   0  0  0  0  0  0  0  0  0  0  0  0
   -0.0280    3.0417   -2.0861 H   0  0  0  0  0  0  0  0  0  0  0  0
    1.2588   -0.9908   -1.4088 H   0  0  0  0  0  0  0  0  0  0  0  0
   -0.3692   -1.1793    0.5087 H   0  0  0  0  0  0  0  0  0  0  0  0
   -3.2516    2.5854    1.1771 O   0  0  0  0  0  0  0  0  0  0  0  0
   -4.0730    3.3163    1.9189 C   0  0  0  0  0  0  0  0  0  0  0  0
   -4.4785    3.1185    3.0356 O   0  0  0  0  0  0  0  0  0  0  0  0
   -4.4997    4.5645    1.0958 C   0  0  0  0  0  0  0  0  0  0  0  0
   -5.3594    4.2046    0.1240 F   0  0  0  0  0  0  0  0  0  0  0  0
   -5.0922    5.4693    1.8762 F   0  0  0  0  0  0  0  0  0  0  0  0
   -3.4288    5.1432    0.5080 F   0  0  0  0  0  0  0  0  0  0  0  0
  1  2  1  0  0  0  0
  2  3  1  0  0  0  0
  4 12  1  0  0  0  0
  4  1  2  0  0  0  0
  5  4  1  0  0  0  0
  6  5  2  0  0  0  0
  6 10  1  0  0  0  0
  7  6  1  0  0  0  0
  8  7  2  0  0  0  0
  9  7  2  0  0  0  0
 10 11  2  0  0  0  0
 11  1  1  0  0  0  0
 11 15  1  0  0  0  0
 13  5  1  0  0  0  0
 14 10  1  0  0  0  0
 16  3  1  0  0  0  0
 16 17  1  0  0  0  0
 17 18  2  0  0  0  0
 19 21  1  0  0  0  0
 19 17  1  0  0  0  0
 20 19  1  0  0  0  0
 22 19  1  0  0  0  0
M  RAD  2   2   2   3   2
M  END
