Coordinates from ORCA-job 4-NO2PhN2+~CF3COO-_B3LYPG-6-31G_dp-NX-Scan-d89-09-n800
 OpenBabel11261920383D

 22 22  0  0  1  0  0  0  0  0999 V2000
   -1.9032    0.5333   -0.1287 C   0  0  0  0  0  0  0  0  0  0  0  0
   -3.0617   -0.0382    0.1451 N   0  0  0  0  0  0  0  0  0  0  0  0
   -4.0641   -0.5198    0.3751 N   0  0  0  0  0  0  0  0  0  0  0  0
   -1.9209    1.8316   -0.8743 C   0  0  2  0  0  0  0  0  0  0  0  0
   -0.5992    2.0968   -1.5134 C   0  0  0  0  0  0  0  0  0  0  0  0
    0.5039    1.4422   -1.0956 C   0  0  0  0  0  0  0  0  0  0  0  0
    1.8019    1.8075   -1.7149 N   0  0  0  0  0  0  0  0  0  0  0  0
    1.7993    2.6537   -2.6044 O   0  0  0  0  0  0  0  0  0  0  0  0
    2.8025    1.2358   -1.2871 O   0  0  0  0  0  0  0  0  0  0  0  0
    0.5103    0.3818   -0.1208 C   0  0  0  0  0  0  0  0  0  0  0  0
   -0.6843   -0.0776    0.3297 C   0  0  0  0  0  0  0  0  0  0  0  0
   -2.7489    1.8807   -1.5837 H   0  0  0  0  0  0  0  0  0  0  0  0
   -0.5290    2.8589   -2.2789 H   0  0  0  0  0  0  0  0  0  0  0  0
    1.4519   -0.0463    0.1901 H   0  0  0  0  0  0  0  0  0  0  0  0
   -0.7438   -0.9152    1.0171 H   0  0  0  0  0  0  0  0  0  0  0  0
   -4.3703    2.5370    0.1193 O   0  0  0  0  0  0  0  0  0  0  0  0
   -3.4128    3.2151    0.4091 C   0  0  0  0  0  0  0  0  0  0  0  0
   -2.1466    3.0024    0.0574 O   0  0  0  0  0  0  0  0  0  0  0  0
   -3.5129    4.4851    1.2858 C   0  0  0  0  0  0  0  0  0  0  0  0
   -3.0196    5.5483    0.6293 F   0  0  0  0  0  0  0  0  0  0  0  0
   -4.7856    4.7278    1.6046 F   0  0  0  0  0  0  0  0  0  0  0  0
   -2.8066    4.3183    2.4176 F   0  0  0  0  0  0  0  0  0  0  0  0
  1  2  1  0  0  0  0
  1 11  2  0  0  0  0
  2  3  1  0  0  0  0
  4 12  1  6  0  0  0
  4  1  1  0  0  0  0
  4 18  1  0  0  0  0
  5  6  2  0  0  0  0
  5  4  1  0  0  0  0
  6 10  1  0  0  0  0
  7  9  2  0  0  0  0
  7  6  1  0  0  0  0
  8  7  2  0  0  0  0
 10 14  1  0  0  0  0
 10 11  1  0  0  0  0
 11 15  1  0  0  0  0
 13  5  1  0  0  0  0
 16 17  2  0  0  0  0
 17 19  1  0  0  0  0
 18 17  1  0  0  0  0
 19 21  1  0  0  0  0
 19 22  1  0  0  0  0
 20 19  1  0  0  0  0
M  RAD  3   2   2   3   3  10   2
M  END
