Coordinates from ORCA-job 4-NO2PhN2+~CF3COO-_B3LYPG-6-31G_dp-NX-Scan-d89-09-n800
 OpenBabel11261920383D

 22 21  0  0  0  0  0  0  0  0999 V2000
   -1.7482   -0.3034    0.2953 C   0  0  0  0  0  0  0  0  0  0  0  0
   -2.5557   -1.3071    0.7459 N   0  0  0  0  0  0  0  0  0  0  0  0
   -3.1482   -2.1856    1.1272 N   0  0  0  0  0  0  0  0  0  0  0  0
   -2.2573    0.6877   -0.5786 C   0  0  0  0  0  0  0  0  0  0  0  0
   -1.3516    1.6068   -1.0983 C   0  0  0  0  0  0  0  0  0  0  0  0
   -0.0215    1.5503   -0.6946 C   0  0  0  0  0  0  0  0  0  0  0  0
    0.9346    2.5201   -1.2629 N   0  0  0  0  0  0  0  0  0  0  0  0
    0.5304    3.2456   -2.1621 O   0  0  0  0  0  0  0  0  0  0  0  0
    2.0741    2.5128   -0.7969 O   0  0  0  0  0  0  0  0  0  0  0  0
    0.4660    0.6101    0.2276 C   0  0  0  0  0  0  0  0  0  0  0  0
   -0.3911   -0.3439    0.7269 C   0  0  0  0  0  0  0  0  0  0  0  0
   -3.3052    0.7586   -0.8449 H   0  0  0  0  0  0  0  0  0  0  0  0
   -1.7233    2.3832   -1.7548 H   0  0  0  0  0  0  0  0  0  0  0  0
    1.5073    0.6466    0.5215 H   0  0  0  0  0  0  0  0  0  0  0  0
   -0.0582   -1.1048    1.4232 H   0  0  0  0  0  0  0  0  0  0  0  0
   -3.9535    5.4517   -1.3489 O   0  0  0  0  0  0  0  0  0  0  0  0
   -3.4762    4.4368   -0.8325 C   0  0  0  0  0  0  0  0  0  0  0  0
   -3.5982    3.2255   -1.2019 O   0  0  0  0  0  0  0  0  0  0  0  0
   -2.5731    4.6168    0.4245 C   0  0  0  0  0  0  0  0  0  0  0  0
   -2.9185    3.7599    1.4190 F   0  0  0  0  0  0  0  0  0  0  0  0
   -1.2693    4.3350    0.1176 F   0  0  0  0  0  0  0  0  0  0  0  0
   -2.6031    5.8566    0.9262 F   0  0  0  0  0  0  0  0  0  0  0  0
  1 11  1  0  0  0  0
  1  2  1  0  0  0  0
  2  3  1  0  0  0  0
  4  1  2  0  0  0  0
  5  6  2  0  0  0  0
  5  4  1  0  0  0  0
  6 10  1  0  0  0  0
  7  9  2  0  0  0  0
  7  6  1  0  0  0  0
  8  7  2  0  0  0  0
 10 14  1  0  0  0  0
 10 11  2  0  0  0  0
 11 15  1  0  0  0  0
 12  4  1  0  0  0  0
 13  5  1  0  0  0  0
 16 17  2  0  0  0  0
 17 19  1  0  0  0  0
 18 17  1  0  0  0  0
 19 22  1  0  0  0  0
 19 20  1  0  0  0  0
 21 19  1  0  0  0  0
M  RAD  3   2   2   3   3  18   2
M  END
