Coordinates from ORCA-job 4-NO2PhN2+~CF3COO-_B3LYPG-6-31G_dp-NX-Scan-d89-09-n800
 OpenBabel11261920383D

 22 21  0  0  0  0  0  0  0  0999 V2000
   -1.8562   -0.0764    0.2884 C   0  0  0  0  0  0  0  0  0  0  0  0
   -2.6981   -1.0291    0.7752 N   0  0  0  0  0  0  0  0  0  0  0  0
   -3.3204   -1.8740    1.1840 N   0  0  0  0  0  0  0  0  0  0  0  0
   -2.2760    0.7547   -0.7769 C   0  0  0  0  0  0  0  0  0  0  0  0
   -1.3164    1.5966   -1.3404 C   0  0  0  0  0  0  0  0  0  0  0  0
   -0.0427    1.6317   -0.7956 C   0  0  0  0  0  0  0  0  0  0  0  0
    0.9591    2.5294   -1.4001 N   0  0  0  0  0  0  0  0  0  0  0  0
    0.6301    3.1433   -2.4081 O   0  0  0  0  0  0  0  0  0  0  0  0
    2.0590    2.5843   -0.8515 O   0  0  0  0  0  0  0  0  0  0  0  0
    0.3471    0.8601    0.3166 C   0  0  0  0  0  0  0  0  0  0  0  0
   -0.5541   -0.0136    0.8707 C   0  0  0  0  0  0  0  0  0  0  0  0
   -3.2829    0.7304   -1.1691 H   0  0  0  0  0  0  0  0  0  0  0  0
   -1.5900    2.2472   -2.1583 H   0  0  0  0  0  0  0  0  0  0  0  0
    1.3498    0.9681    0.7095 H   0  0  0  0  0  0  0  0  0  0  0  0
   -0.3008   -0.6409    1.7171 H   0  0  0  0  0  0  0  0  0  0  0  0
   -3.8772    5.2678   -1.0651 O   0  0  0  0  0  0  0  0  0  0  0  0
   -3.4143    4.1990   -0.6622 C   0  0  0  0  0  0  0  0  0  0  0  0
   -3.6026    3.0259   -1.1239 O   0  0  0  0  0  0  0  0  0  0  0  0
   -2.4208    4.2604    0.5385 C   0  0  0  0  0  0  0  0  0  0  0  0
   -2.5047    3.1654    1.3437 F   0  0  0  0  0  0  0  0  0  0  0  0
   -1.1350    4.2895    0.0767 F   0  0  0  0  0  0  0  0  0  0  0  0
   -2.5926    5.3396    1.3093 F   0  0  0  0  0  0  0  0  0  0  0  0
  1  2  1  0  0  0  0
  1 11  1  0  0  0  0
  2  3  1  0  0  0  0
  4  1  2  0  0  0  0
  5  6  2  0  0  0  0
  5  4  1  0  0  0  0
  6 10  1  0  0  0  0
  7  9  2  0  0  0  0
  7  6  1  0  0  0  0
  8  7  2  0  0  0  0
 10 14  1  0  0  0  0
 10 11  2  0  0  0  0
 11 15  1  0  0  0  0
 12  4  1  0  0  0  0
 13  5  1  0  0  0  0
 16 17  1  0  0  0  0
 17 19  1  0  0  0  0
 18 17  2  0  0  0  0
 19 22  1  0  0  0  0
 19 20  1  0  0  0  0
 21 19  1  0  0  0  0
M  RAD  3   2   2   3   3  16   2
M  END
