Coordinates from ORCA-job 4-NO2PhN2+~CF3COO-_B3LYPG-6-31G_dp-NX-Scan-d89-09-n800
 OpenBabel11261920383D

 22 22  0  0  1  0  0  0  0  0999 V2000
   -1.9007    0.5174   -0.1214 C   0  0  0  0  0  0  0  0  0  0  0  0
   -3.0521   -0.0674    0.1522 N   0  0  0  0  0  0  0  0  0  0  0  0
   -4.0427   -0.5725    0.3866 N   0  0  0  0  0  0  0  0  0  0  0  0
   -1.9281    1.8190   -0.8612 C   0  0  2  0  0  0  0  0  0  0  0  0
   -0.6104    2.0929   -1.5058 C   0  0  0  0  0  0  0  0  0  0  0  0
    0.4981    1.4442   -1.0937 C   0  0  0  0  0  0  0  0  0  0  0  0
    1.7917    1.8183   -1.7167 N   0  0  0  0  0  0  0  0  0  0  0  0
    1.7809    2.6661   -2.6046 O   0  0  0  0  0  0  0  0  0  0  0  0
    2.7971    1.2522   -1.2931 O   0  0  0  0  0  0  0  0  0  0  0  0
    0.5140    0.3821   -0.1204 C   0  0  0  0  0  0  0  0  0  0  0  0
   -0.6758   -0.0859    0.3330 C   0  0  0  0  0  0  0  0  0  0  0  0
   -2.7602    1.8684   -1.5655 H   0  0  0  0  0  0  0  0  0  0  0  0
   -0.5479    2.8571   -2.2698 H   0  0  0  0  0  0  0  0  0  0  0  0
    1.4594   -0.0403    0.1870 H   0  0  0  0  0  0  0  0  0  0  0  0
   -0.7276   -0.9251    1.0191 H   0  0  0  0  0  0  0  0  0  0  0  0
   -4.3944    2.6121    0.0372 O   0  0  0  0  0  0  0  0  0  0  0  0
   -3.4215    3.2388    0.3844 C   0  0  0  0  0  0  0  0  0  0  0  0
   -2.1506    2.9796    0.0811 O   0  0  0  0  0  0  0  0  0  0  0  0
   -3.5030    4.4939    1.2842 C   0  0  0  0  0  0  0  0  0  0  0  0
   -2.9651    5.5538    0.6577 F   0  0  0  0  0  0  0  0  0  0  0  0
   -4.7745    4.7684    1.5811 F   0  0  0  0  0  0  0  0  0  0  0  0
   -2.8260    4.2861    2.4269 F   0  0  0  0  0  0  0  0  0  0  0  0
  1  2  1  0  0  0  0
  1 11  2  0  0  0  0
  2  3  1  0  0  0  0
  4 12  1  6  0  0  0
  4  1  1  0  0  0  0
  4 18  1  0  0  0  0
  5  6  2  0  0  0  0
  5  4  1  0  0  0  0
  6 10  1  0  0  0  0
  7  9  2  0  0  0  0
  7  6  1  0  0  0  0
  8  7  2  0  0  0  0
 10 14  1  0  0  0  0
 10 11  1  0  0  0  0
 11 15  1  0  0  0  0
 13  5  1  0  0  0  0
 16 17  2  0  0  0  0
 17 19  1  0  0  0  0
 18 17  1  0  0  0  0
 19 21  1  0  0  0  0
 19 22  1  0  0  0  0
 20 19  1  0  0  0  0
M  RAD  3   2   2   3   3  10   2
M  END
