Coordinates from ORCA-job 4-NO2PhN2+~CF3COO-_B3LYPG-6-31G_dp-NX-Scan-d89-09-n800
 OpenBabel11261920383D

 22 22  0  0  1  0  0  0  0  0999 V2000
   -1.8958    0.1791    0.0784 C   0  0  1  0  0  0  0  0  0  0  0  0
   -2.8050   -0.7265    0.3965 N   0  0  0  0  0  0  0  0  0  0  0  0
   -3.5046   -1.5764    0.6983 N   0  0  0  0  0  0  0  0  0  0  0  0
   -2.2550    1.4190   -0.6904 C   0  0  2  0  0  0  0  0  0  0  0  0
   -1.0764    1.8893   -1.4852 C   0  0  0  0  0  0  0  0  0  0  0  0
    0.1721    1.5543   -1.1010 C   0  0  0  0  0  0  0  0  0  0  0  0
    1.3113    2.1252   -1.8599 N   0  0  0  0  0  0  0  0  0  0  0  0
    1.0623    2.8168   -2.8425 O   0  0  0  0  0  0  0  0  0  0  0  0
    2.4395    1.8672   -1.4444 O   0  0  0  0  0  0  0  0  0  0  0  0
    0.4811    0.6351   -0.0347 C   0  0  0  0  0  0  0  0  0  0  0  0
   -0.5397   -0.0660    0.5146 C   0  0  0  0  0  0  0  0  0  0  0  0
   -3.1390    1.2834   -1.3175 H   0  0  0  0  0  0  0  0  0  0  0  0
   -1.2386    2.5595   -2.3175 H   0  0  0  0  0  0  0  0  0  0  0  0
    1.5109    0.4855    0.2569 H   0  0  0  0  0  0  0  0  0  0  0  0
   -0.3613   -0.8335    1.2606 H   0  0  0  0  0  0  0  0  0  0  0  0
   -2.7148    4.2660   -1.1100 O   0  0  0  0  0  0  0  0  0  0  0  0
   -2.8354    3.7427   -0.0282 C   0  0  0  0  0  0  0  0  0  0  0  0
   -2.6605    2.4645    0.3279 O   0  0  0  0  0  0  0  0  0  0  0  0
   -3.2522    4.5422    1.2327 C   0  0  0  0  0  0  0  0  0  0  0  0
   -2.3144    4.4339    2.1902 F   0  0  0  0  0  0  0  0  0  0  0  0
   -3.4117    5.8315    0.9315 F   0  0  0  0  0  0  0  0  0  0  0  0
   -4.4125    4.0664    1.7220 F   0  0  0  0  0  0  0  0  0  0  0  0
  1  2  1  1  0  0  0
  1 11  1  0  0  0  0
  2  3  1  0  0  0  0
  4 12  1  6  0  0  0
  4  1  1  0  0  0  0
  4 18  1  0  0  0  0
  5  6  2  0  0  0  0
  5  4  1  0  0  0  0
  6 10  1  0  0  0  0
  7  9  2  0  0  0  0
  7  6  1  0  0  0  0
  8  7  2  0  0  0  0
 10 14  1  0  0  0  0
 10 11  2  0  0  0  0
 11 15  1  0  0  0  0
 13  5  1  0  0  0  0
 16 17  2  0  0  0  0
 17 18  1  0  0  0  0
 17 19  1  0  0  0  0
 19 22  1  0  0  0  0
 19 20  1  0  0  0  0
 21 19  1  0  0  0  0
M  RAD  3   1   2   2   2   3   3
M  END
