Coordinates from ORCA-job 4-NO2PhN2+~CF3COO-_B3LYPG-6-31G_dp-NX-Scan-d89-09-n800
 OpenBabel11261920383D

 22 22  0  0  1  0  0  0  0  0999 V2000
   -1.8957    0.5486   -0.1407 C   0  0  0  0  0  0  0  0  0  0  0  0
   -3.0763    0.0344    0.1565 N   0  0  0  0  0  0  0  0  0  0  0  0
   -4.1321   -0.3083    0.3882 N   0  0  0  0  0  0  0  0  0  0  0  0
   -1.8963    1.8495   -0.8821 C   0  0  2  0  0  0  0  0  0  0  0  0
   -0.5653    2.1125   -1.4988 C   0  0  0  0  0  0  0  0  0  0  0  0
    0.5252    1.4285   -1.0933 C   0  0  0  0  0  0  0  0  0  0  0  0
    1.8317    1.7911   -1.6977 N   0  0  0  0  0  0  0  0  0  0  0  0
    1.8463    2.6642   -2.5607 O   0  0  0  0  0  0  0  0  0  0  0  0
    2.8212    1.1897   -1.2853 O   0  0  0  0  0  0  0  0  0  0  0  0
    0.5124    0.3427   -0.1483 C   0  0  0  0  0  0  0  0  0  0  0  0
   -0.6917   -0.0999    0.2959 C   0  0  0  0  0  0  0  0  0  0  0  0
   -2.7124    1.9051   -1.6059 H   0  0  0  0  0  0  0  0  0  0  0  0
   -0.4775    2.8934   -2.2433 H   0  0  0  0  0  0  0  0  0  0  0  0
    1.4454   -0.1131    0.1486 H   0  0  0  0  0  0  0  0  0  0  0  0
   -0.7678   -0.9498    0.9663 H   0  0  0  0  0  0  0  0  0  0  0  0
   -4.3156    2.3953    0.2741 O   0  0  0  0  0  0  0  0  0  0  0  0
   -3.4002    3.1633    0.4646 C   0  0  0  0  0  0  0  0  0  0  0  0
   -2.1467    3.0311    0.0412 O   0  0  0  0  0  0  0  0  0  0  0  0
   -3.5550    4.4743    1.2698 C   0  0  0  0  0  0  0  0  0  0  0  0
   -3.2655    5.5317    0.4919 F   0  0  0  0  0  0  0  0  0  0  0  0
   -4.8062    4.5983    1.7163 F   0  0  0  0  0  0  0  0  0  0  0  0
   -2.7174    4.4767    2.3210 F   0  0  0  0  0  0  0  0  0  0  0  0
  1  2  1  0  0  0  0
  1 11  2  0  0  0  0
  2  3  1  0  0  0  0
  4 12  1  6  0  0  0
  4  1  1  0  0  0  0
  4 18  1  0  0  0  0
  5  6  2  0  0  0  0
  5  4  1  0  0  0  0
  6 10  1  0  0  0  0
  7  9  2  0  0  0  0
  7  6  1  0  0  0  0
  8  7  2  0  0  0  0
 10 14  1  0  0  0  0
 10 11  1  0  0  0  0
 11 15  1  0  0  0  0
 13  5  1  0  0  0  0
 16 17  2  0  0  0  0
 17 19  1  0  0  0  0
 18 17  1  0  0  0  0
 19 21  1  0  0  0  0
 19 22  1  0  0  0  0
 20 19  1  0  0  0  0
M  RAD  3   2   2   3   3  10   2
M  END
