Coordinates from ORCA-job 4-NO2PhN2+~CF3COO-_B3LYPG-6-31G_dp-NX-Scan-d89-09-n800
 OpenBabel11261920383D

 22 22  0  0  1  0  0  0  0  0999 V2000
   -1.8312    0.3162    0.0267 C   0  0  0  0  0  0  0  0  0  0  0  0
   -2.9137   -0.3238    0.4194 N   0  0  0  0  0  0  0  0  0  0  0  0
   -3.8605   -0.8632    0.7498 N   0  0  0  0  0  0  0  0  0  0  0  0
   -2.0285    1.6188   -0.6826 C   0  0  2  0  0  0  0  0  0  0  0  0
   -0.7878    2.0314   -1.4034 C   0  0  0  0  0  0  0  0  0  0  0  0
    0.3988    1.4672   -1.0999 C   0  0  0  0  0  0  0  0  0  0  0  0
    1.6076    1.9784   -1.7923 N   0  0  0  0  0  0  0  0  0  0  0  0
    1.4624    2.8683   -2.6255 O   0  0  0  0  0  0  0  0  0  0  0  0
    2.6835    1.4741   -1.4780 O   0  0  0  0  0  0  0  0  0  0  0  0
    0.5764    0.3745   -0.1765 C   0  0  0  0  0  0  0  0  0  0  0  0
   -0.5299   -0.1999    0.3581 C   0  0  0  0  0  0  0  0  0  0  0  0
   -2.9007    1.6214   -1.3386 H   0  0  0  0  0  0  0  0  0  0  0  0
   -0.8500    2.8261   -2.1364 H   0  0  0  0  0  0  0  0  0  0  0  0
    1.5741    0.0193    0.0366 H   0  0  0  0  0  0  0  0  0  0  0  0
   -0.4581   -1.0568    1.0195 H   0  0  0  0  0  0  0  0  0  0  0  0
   -3.9443    3.5984   -0.9492 O   0  0  0  0  0  0  0  0  0  0  0  0
   -3.2867    3.5455    0.0609 C   0  0  0  0  0  0  0  0  0  0  0  0
   -2.3222    2.6701    0.3574 O   0  0  0  0  0  0  0  0  0  0  0  0
   -3.4690    4.5301    1.2400 C   0  0  0  0  0  0  0  0  0  0  0  0
   -2.3263    5.1987    1.4684 F   0  0  0  0  0  0  0  0  0  0  0  0
   -4.4353    5.4073    0.9661 F   0  0  0  0  0  0  0  0  0  0  0  0
   -3.7983    3.8573    2.3579 F   0  0  0  0  0  0  0  0  0  0  0  0
  1 11  2  0  0  0  0
  1  2  1  0  0  0  0
  2  3  1  0  0  0  0
  4 12  1  6  0  0  0
  4  1  1  0  0  0  0
  4 18  1  0  0  0  0
  5  6  2  0  0  0  0
  5  4  1  0  0  0  0
  6 10  1  0  0  0  0
  7  9  2  0  0  0  0
  7  6  1  0  0  0  0
  8  7  2  0  0  0  0
 10 14  1  0  0  0  0
 10 11  1  0  0  0  0
 11 15  1  0  0  0  0
 13  5  1  0  0  0  0
 16 17  2  0  0  0  0
 17 18  1  0  0  0  0
 17 19  1  0  0  0  0
 19 20  1  0  0  0  0
 19 22  1  0  0  0  0
 21 19  1  0  0  0  0
M  RAD  3   2   2   3   3  10   2
M  END
