Coordinates from ORCA-job 4-NO2PhN2+~CF3COO-_B3LYPG-6-31G_dp-NX-Scan-d89-09-n800
 OpenBabel11261920383D

 22 22  0  0  1  0  0  0  0  0999 V2000
   -1.8893    0.5467   -0.1389 C   0  0  0  0  0  0  0  0  0  0  0  0
   -3.0749    0.0491    0.1682 N   0  0  0  0  0  0  0  0  0  0  0  0
   -4.1456   -0.2408    0.4030 N   0  0  0  0  0  0  0  0  0  0  0  0
   -1.8897    1.8493   -0.8774 C   0  0  2  0  0  0  0  0  0  0  0  0
   -0.5584    2.1159   -1.4905 C   0  0  0  0  0  0  0  0  0  0  0  0
    0.5308    1.4244   -1.0936 C   0  0  0  0  0  0  0  0  0  0  0  0
    1.8374    1.7900   -1.6964 N   0  0  0  0  0  0  0  0  0  0  0  0
    1.8530    2.6728   -2.5494 O   0  0  0  0  0  0  0  0  0  0  0  0
    2.8258    1.1809   -1.2930 O   0  0  0  0  0  0  0  0  0  0  0  0
    0.5170    0.3290   -0.1600 C   0  0  0  0  0  0  0  0  0  0  0  0
   -0.6875   -0.1118    0.2854 C   0  0  0  0  0  0  0  0  0  0  0  0
   -2.7046    1.9062   -1.6029 H   0  0  0  0  0  0  0  0  0  0  0  0
   -0.4691    2.9039   -2.2273 H   0  0  0  0  0  0  0  0  0  0  0  0
    1.4492   -0.1337    0.1286 H   0  0  0  0  0  0  0  0  0  0  0  0
   -0.7650   -0.9666    0.9493 H   0  0  0  0  0  0  0  0  0  0  0  0
   -4.3096    2.3740    0.2958 O   0  0  0  0  0  0  0  0  0  0  0  0
   -3.4014    3.1541    0.4736 C   0  0  0  0  0  0  0  0  0  0  0  0
   -2.1481    3.0310    0.0474 O   0  0  0  0  0  0  0  0  0  0  0  0
   -3.5685    4.4733    1.2629 C   0  0  0  0  0  0  0  0  0  0  0  0
   -3.3019    5.5240    0.4679 F   0  0  0  0  0  0  0  0  0  0  0  0
   -4.8174    4.5849    1.7191 F   0  0  0  0  0  0  0  0  0  0  0  0
   -2.7217    4.5028    2.3063 F   0  0  0  0  0  0  0  0  0  0  0  0
  1  2  1  0  0  0  0
  1 11  2  0  0  0  0
  2  3  1  0  0  0  0
  4 12  1  6  0  0  0
  4  1  1  0  0  0  0
  4 18  1  0  0  0  0
  5  6  2  0  0  0  0
  5  4  1  0  0  0  0
  6 10  1  0  0  0  0
  7  9  2  0  0  0  0
  7  6  1  0  0  0  0
  8  7  2  0  0  0  0
 10 14  1  0  0  0  0
 10 11  1  0  0  0  0
 11 15  1  0  0  0  0
 13  5  1  0  0  0  0
 16 17  2  0  0  0  0
 17 19  1  0  0  0  0
 18 17  1  0  0  0  0
 19 21  1  0  0  0  0
 19 22  1  0  0  0  0
 20 19  1  0  0  0  0
M  RAD  3   2   2   3   3  10   2
M  END
