Coordinates from ORCA-job 4-NO2PhN2+~CF3COO-_B3LYPG-6-31G_dp-NX-Scan-d89-09-n800
 OpenBabel11261920383D

 22 21  0  0  0  0  0  0  0  0999 V2000
   -1.8600    0.4751    0.2716 C   0  0  0  0  0  0  0  0  0  0  0  0
   -2.8128   -0.2156    0.9303 N   0  0  0  0  0  0  0  0  0  0  0  0
   -3.5713   -0.8349    1.4865 N   0  0  0  0  0  0  0  0  0  0  0  0
   -2.1752    1.0305   -0.9982 C   0  0  0  0  0  0  0  0  0  0  0  0
   -1.0827    1.5528   -1.7353 C   0  0  0  0  0  0  0  0  0  0  0  0
    0.1540    1.6227   -1.1475 C   0  0  0  0  0  0  0  0  0  0  0  0
    1.2735    2.1925   -1.9307 N   0  0  0  0  0  0  0  0  0  0  0  0
    1.0421    2.5354   -3.0851 O   0  0  0  0  0  0  0  0  0  0  0  0
    2.3624    2.2716   -1.3663 O   0  0  0  0  0  0  0  0  0  0  0  0
    0.4316    1.1709    0.1697 C   0  0  0  0  0  0  0  0  0  0  0  0
   -0.5739    0.5928    0.8894 C   0  0  0  0  0  0  0  0  0  0  0  0
   -3.1017    0.7749   -1.4874 H   0  0  0  0  0  0  0  0  0  0  0  0
   -1.2382    1.9300   -2.7364 H   0  0  0  0  0  0  0  0  0  0  0  0
    1.4291    1.2898    0.5709 H   0  0  0  0  0  0  0  0  0  0  0  0
   -0.4198    0.2229    1.8958 H   0  0  0  0  0  0  0  0  0  0  0  0
   -3.4708    5.1187   -0.7104 O   0  0  0  0  0  0  0  0  0  0  0  0
   -3.2512    3.9602   -0.3798 C   0  0  0  0  0  0  0  0  0  0  0  0
   -3.2623    2.9148   -1.1306 O   0  0  0  0  0  0  0  0  0  0  0  0
   -2.9195    3.6768    1.1123 C   0  0  0  0  0  0  0  0  0  0  0  0
   -3.5655    2.5631    1.5710 F   0  0  0  0  0  0  0  0  0  0  0  0
   -1.5888    3.4280    1.2653 F   0  0  0  0  0  0  0  0  0  0  0  0
   -3.2386    4.6863    1.9232 F   0  0  0  0  0  0  0  0  0  0  0  0
  1 11  1  0  0  0  0
  1  2  1  0  0  0  0
  2  3  1  0  0  0  0
  4  1  2  0  0  0  0
  5  6  2  0  0  0  0
  5  4  1  0  0  0  0
  6 10  1  0  0  0  0
  7  9  2  0  0  0  0
  7  6  1  0  0  0  0
  8  7  2  0  0  0  0
 10 14  1  0  0  0  0
 10 11  2  0  0  0  0
 11 15  1  0  0  0  0
 12  4  1  0  0  0  0
 13  5  1  0  0  0  0
 16 17  1  0  0  0  0
 17 19  1  0  0  0  0
 18 17  2  0  0  0  0
 19 21  1  0  0  0  0
 19 20  1  0  0  0  0
 19 22  1  0  0  0  0
M  RAD  3   2   2   3   3  16   2
M  END
