Coordinates from ORCA-job 4-NO2PhN2+~CF3COO-_B3LYPG-6-31G_dp-NX-Scan-d89-09-n800
 OpenBabel11261920383D

 22 22  0  0  0  0  0  0  0  0999 V2000
   -1.0865    0.8912    0.3235 C   0  0  0  0  0  0  0  0  0  0  0  0
   -1.8879    0.6364    1.4650 N   0  0  0  0  0  0  0  0  0  0  0  0
   -2.7910    1.2306    1.9997 N   0  0  0  0  0  0  0  0  0  0  0  0
   -0.9458    2.1175   -0.3577 C   0  0  0  0  0  0  0  0  0  0  0  0
   -0.0687    2.1930   -1.4348 C   0  0  0  0  0  0  0  0  0  0  0  0
    0.6377    1.0570   -1.8251 C   0  0  0  0  0  0  0  0  0  0  0  0
    1.5569    1.1516   -2.9785 N   0  0  0  0  0  0  0  0  0  0  0  0
    1.6524    2.2412   -3.5376 O   0  0  0  0  0  0  0  0  0  0  0  0
    2.1639    0.1330   -3.3002 O   0  0  0  0  0  0  0  0  0  0  0  0
    0.5139   -0.1630   -1.1655 C   0  0  0  0  0  0  0  0  0  0  0  0
   -0.3446   -0.2343   -0.0762 C   0  0  0  0  0  0  0  0  0  0  0  0
   -1.5059    2.9883   -0.0553 H   0  0  0  0  0  0  0  0  0  0  0  0
    0.0698    3.1181   -1.9799 H   0  0  0  0  0  0  0  0  0  0  0  0
    1.0878   -1.0170   -1.5007 H   0  0  0  0  0  0  0  0  0  0  0  0
   -0.4612   -1.1554    0.4835 H   0  0  0  0  0  0  0  0  0  0  0  0
   -3.1734    2.5202    1.2481 O   0  0  0  0  0  0  0  0  0  0  0  0
   -4.0854    3.2587    1.9062 C   0  0  0  0  0  0  0  0  0  0  0  0
   -4.5647    3.0748    2.9892 O   0  0  0  0  0  0  0  0  0  0  0  0
   -4.4676    4.4610    1.0035 C   0  0  0  0  0  0  0  0  0  0  0  0
   -5.2278    4.0400   -0.0230 F   0  0  0  0  0  0  0  0  0  0  0  0
   -5.1483    5.3690    1.7009 F   0  0  0  0  0  0  0  0  0  0  0  0
   -3.3632    5.0473    0.4932 F   0  0  0  0  0  0  0  0  0  0  0  0
  1  2  1  0  0  0  0
  2  3  1  0  0  0  0
  4 12  1  0  0  0  0
  4  1  2  0  0  0  0
  5  4  1  0  0  0  0
  6  5  2  0  0  0  0
  6 10  1  0  0  0  0
  7  6  1  0  0  0  0
  8  7  2  0  0  0  0
  9  7  2  0  0  0  0
 10 11  2  0  0  0  0
 11  1  1  0  0  0  0
 11 15  1  0  0  0  0
 13  5  1  0  0  0  0
 14 10  1  0  0  0  0
 16 17  1  0  0  0  0
 16  3  1  0  0  0  0
 17 18  2  0  0  0  0
 19 21  1  0  0  0  0
 19 17  1  0  0  0  0
 20 19  1  0  0  0  0
 22 19  1  0  0  0  0
M  RAD  2   2   2   3   2
M  END
