Coordinates from ORCA-job 4-NO2PhN2+~CF3COO-_B3LYPG-6-31G_dp-NX-Scan-d89-09-n800
 OpenBabel11261920383D

 22 21  0  0  0  0  0  0  0  0999 V2000
   -1.7189   -0.6069    0.2731 C   0  0  0  0  0  0  0  0  0  0  0  0
   -2.4824   -1.6792    0.6287 N   0  0  0  0  0  0  0  0  0  0  0  0
   -3.0777   -2.5839    0.9380 N   0  0  0  0  0  0  0  0  0  0  0  0
   -2.3092    0.4666   -0.4362 C   0  0  0  0  0  0  0  0  0  0  0  0
   -1.4868    1.5099   -0.8383 C   0  0  0  0  0  0  0  0  0  0  0  0
   -0.1383    1.4716   -0.4857 C   0  0  0  0  0  0  0  0  0  0  0  0
    0.7457    2.5633   -0.9414 N   0  0  0  0  0  0  0  0  0  0  0  0
    0.2734    3.3752   -1.7251 O   0  0  0  0  0  0  0  0  0  0  0  0
    1.8968    2.5626   -0.5034 O   0  0  0  0  0  0  0  0  0  0  0  0
    0.4345    0.4386    0.2701 C   0  0  0  0  0  0  0  0  0  0  0  0
   -0.3482   -0.6323    0.6481 C   0  0  0  0  0  0  0  0  0  0  0  0
   -3.3713    0.5002   -0.6520 H   0  0  0  0  0  0  0  0  0  0  0  0
   -1.9518    2.3612   -1.3404 H   0  0  0  0  0  0  0  0  0  0  0  0
    1.4840    0.4921    0.5309 H   0  0  0  0  0  0  0  0  0  0  0  0
    0.0552   -1.4671    1.2090 H   0  0  0  0  0  0  0  0  0  0  0  0
   -4.2010    5.5209   -1.3250 O   0  0  0  0  0  0  0  0  0  0  0  0
   -3.4821    4.6129   -0.8893 C   0  0  0  0  0  0  0  0  0  0  0  0
   -3.5557    3.3730   -1.1427 O   0  0  0  0  0  0  0  0  0  0  0  0
   -2.3325    5.0641    0.0620 C   0  0  0  0  0  0  0  0  0  0  0  0
   -1.7397    4.0146    0.7040 F   0  0  0  0  0  0  0  0  0  0  0  0
   -1.3584    5.6985   -0.6227 F   0  0  0  0  0  0  0  0  0  0  0  0
   -2.7751    5.9035    1.0165 F   0  0  0  0  0  0  0  0  0  0  0  0
  1  2  1  0  0  0  0
  1 11  1  0  0  0  0
  2  3  1  0  0  0  0
  4  1  2  0  0  0  0
  5  6  2  0  0  0  0
  5  4  1  0  0  0  0
  6 10  1  0  0  0  0
  7  9  2  0  0  0  0
  7  6  1  0  0  0  0
  8  7  2  0  0  0  0
 10 14  1  0  0  0  0
 10 11  2  0  0  0  0
 11 15  1  0  0  0  0
 12  4  1  0  0  0  0
 13  5  1  0  0  0  0
 16 17  2  0  0  0  0
 17 19  1  0  0  0  0
 18 17  1  0  0  0  0
 19 20  1  0  0  0  0
 19 22  1  0  0  0  0
 21 19  1  0  0  0  0
M  RAD  3   2   2   3   3  18   2
M  END
