Coordinates from ORCA-job 4-NO2PhN2+~CF3COO-_B3LYPG-6-31G_dp-NX-Scan-d89-09-n800
 OpenBabel11261920383D

 22 21  0  0  0  0  0  0  0  0999 V2000
   -1.8880    0.1700    0.2809 C   0  0  0  0  0  0  0  0  0  0  0  0
   -2.7722   -0.6910    0.8430 N   0  0  0  0  0  0  0  0  0  0  0  0
   -3.4413   -1.4644    1.3151 N   0  0  0  0  0  0  0  0  0  0  0  0
   -2.2394    0.8433   -0.9130 C   0  0  0  0  0  0  0  0  0  0  0  0
   -1.2225    1.5644   -1.5563 C   0  0  0  0  0  0  0  0  0  0  0  0
    0.0210    1.6489   -0.9658 C   0  0  0  0  0  0  0  0  0  0  0  0
    1.0785    2.4143   -1.6544 N   0  0  0  0  0  0  0  0  0  0  0  0
    0.8078    2.8921   -2.7509 O   0  0  0  0  0  0  0  0  0  0  0  0
    2.1631    2.5039   -1.0818 O   0  0  0  0  0  0  0  0  0  0  0  0
    0.3380    1.0525    0.2765 C   0  0  0  0  0  0  0  0  0  0  0  0
   -0.6125    0.3023    0.9140 C   0  0  0  0  0  0  0  0  0  0  0  0
   -3.2081    0.7134   -1.3707 H   0  0  0  0  0  0  0  0  0  0  0  0
   -1.4306    2.0808   -2.4825 H   0  0  0  0  0  0  0  0  0  0  0  0
    1.3250    1.1982    0.6954 H   0  0  0  0  0  0  0  0  0  0  0  0
   -0.4193   -0.1854    1.8617 H   0  0  0  0  0  0  0  0  0  0  0  0
   -3.6481    5.1805   -0.9323 O   0  0  0  0  0  0  0  0  0  0  0  0
   -3.3157    4.0619   -0.5439 C   0  0  0  0  0  0  0  0  0  0  0  0
   -3.4757    2.9395   -1.1352 O   0  0  0  0  0  0  0  0  0  0  0  0
   -2.5703    3.9693    0.8215 C   0  0  0  0  0  0  0  0  0  0  0  0
   -2.8842    2.8329    1.5087 F   0  0  0  0  0  0  0  0  0  0  0  0
   -1.2219    3.9270    0.6205 F   0  0  0  0  0  0  0  0  0  0  0  0
   -2.8229    5.0048    1.6278 F   0  0  0  0  0  0  0  0  0  0  0  0
  1  2  1  0  0  0  0
  1 11  1  0  0  0  0
  2  3  1  0  0  0  0
  4  1  2  0  0  0  0
  5  6  2  0  0  0  0
  5  4  1  0  0  0  0
  6 10  1  0  0  0  0
  7  9  2  0  0  0  0
  7  6  1  0  0  0  0
  8  7  2  0  0  0  0
 10 14  1  0  0  0  0
 10 11  2  0  0  0  0
 11 15  1  0  0  0  0
 12  4  1  0  0  0  0
 13  5  1  0  0  0  0
 16 17  1  0  0  0  0
 17 19  1  0  0  0  0
 18 17  2  0  0  0  0
 19 20  1  0  0  0  0
 19 22  1  0  0  0  0
 21 19  1  0  0  0  0
M  RAD  3   2   2   3   3  16   2
M  END
