Coordinates from ORCA-job 4-NO2PhN2+~CF3COO-_B3LYPG-6-31G_dp-NX-Scan-d89-09-n800
 OpenBabel11261920383D

 22 21  0  0  0  0  0  0  0  0999 V2000
   -1.8973    0.0554    0.2766 C   0  0  0  0  0  0  0  0  0  0  0  0
   -2.7638   -0.8518    0.7960 N   0  0  0  0  0  0  0  0  0  0  0  0
   -3.4139   -1.6622    1.2314 N   0  0  0  0  0  0  0  0  0  0  0  0
   -2.2679    0.7911   -0.8736 C   0  0  0  0  0  0  0  0  0  0  0  0
   -1.2747    1.5753   -1.4712 C   0  0  0  0  0  0  0  0  0  0  0  0
   -0.0302    1.6570   -0.8769 C   0  0  0  0  0  0  0  0  0  0  0  0
    1.0021    2.4957   -1.5147 N   0  0  0  0  0  0  0  0  0  0  0  0
    0.7172    3.0278   -2.5819 O   0  0  0  0  0  0  0  0  0  0  0  0
    2.0835    2.5834   -0.9358 O   0  0  0  0  0  0  0  0  0  0  0  0
    0.3063    0.9900    0.3213 C   0  0  0  0  0  0  0  0  0  0  0  0
   -0.6229    0.1759    0.9125 C   0  0  0  0  0  0  0  0  0  0  0  0
   -3.2443    0.6910   -1.3235 H   0  0  0  0  0  0  0  0  0  0  0  0
   -1.5001    2.1458   -2.3608 H   0  0  0  0  0  0  0  0  0  0  0  0
    1.2909    1.1336    0.7468 H   0  0  0  0  0  0  0  0  0  0  0  0
   -0.4130   -0.3681    1.8255 H   0  0  0  0  0  0  0  0  0  0  0  0
   -3.7845    5.1731   -0.9611 O   0  0  0  0  0  0  0  0  0  0  0  0
   -3.3632    4.0830   -0.5747 C   0  0  0  0  0  0  0  0  0  0  0  0
   -3.5670    2.9294   -1.0828 O   0  0  0  0  0  0  0  0  0  0  0  0
   -2.4190    4.0909    0.6663 C   0  0  0  0  0  0  0  0  0  0  0  0
   -2.4976    2.9414    1.3958 F   0  0  0  0  0  0  0  0  0  0  0  0
   -1.1193    4.1930    0.2633 F   0  0  0  0  0  0  0  0  0  0  0  0
   -2.6607    5.1083    1.4998 F   0  0  0  0  0  0  0  0  0  0  0  0
  1  2  1  0  0  0  0
  1 11  1  0  0  0  0
  2  3  1  0  0  0  0
  4  1  2  0  0  0  0
  5  6  2  0  0  0  0
  5  4  1  0  0  0  0
  6 10  1  0  0  0  0
  7  9  2  0  0  0  0
  7  6  1  0  0  0  0
  8  7  2  0  0  0  0
 10 14  1  0  0  0  0
 10 11  2  0  0  0  0
 11 15  1  0  0  0  0
 12  4  1  0  0  0  0
 13  5  1  0  0  0  0
 16 17  1  0  0  0  0
 17 19  1  0  0  0  0
 18 17  2  0  0  0  0
 19 20  1  0  0  0  0
 19 22  1  0  0  0  0
 21 19  1  0  0  0  0
M  RAD  3   2   2   3   3  16   2
M  END
