Coordinates from ORCA-job 4-NO2PhN2+~CF3COO-_B3LYPG-6-31G_dp-NX-Scan-d89-09-n800
 OpenBabel11261920383D

 22 21  0  0  0  0  0  0  0  0999 V2000
   -1.7328   -0.3403    0.2995 C   0  0  0  0  0  0  0  0  0  0  0  0
   -2.5305   -1.3535    0.7471 N   0  0  0  0  0  0  0  0  0  0  0  0
   -3.1176   -2.2359    1.1280 N   0  0  0  0  0  0  0  0  0  0  0  0
   -2.2585    0.6643   -0.5490 C   0  0  0  0  0  0  0  0  0  0  0  0
   -1.3669    1.5989   -1.0637 C   0  0  0  0  0  0  0  0  0  0  0  0
   -0.0302    1.5417   -0.6797 C   0  0  0  0  0  0  0  0  0  0  0  0
    0.9142    2.5248   -1.2455 N   0  0  0  0  0  0  0  0  0  0  0  0
    0.4970    3.2564   -2.1335 O   0  0  0  0  0  0  0  0  0  0  0  0
    2.0574    2.5210   -0.7884 O   0  0  0  0  0  0  0  0  0  0  0  0
    0.4750    0.5874    0.2172 C   0  0  0  0  0  0  0  0  0  0  0  0
   -0.3699   -0.3817    0.7100 C   0  0  0  0  0  0  0  0  0  0  0  0
   -3.3111    0.7338   -0.7981 H   0  0  0  0  0  0  0  0  0  0  0  0
   -1.7577    2.3875   -1.6963 H   0  0  0  0  0  0  0  0  0  0  0  0
    1.5203    0.6238    0.4969 H   0  0  0  0  0  0  0  0  0  0  0  0
   -0.0224   -1.1544    1.3858 H   0  0  0  0  0  0  0  0  0  0  0  0
   -3.9309    5.5051   -1.3846 O   0  0  0  0  0  0  0  0  0  0  0  0
   -3.4624    4.4864   -0.8668 C   0  0  0  0  0  0  0  0  0  0  0  0
   -3.5791    3.2782   -1.2460 O   0  0  0  0  0  0  0  0  0  0  0  0
   -2.5838    4.6568    0.4086 C   0  0  0  0  0  0  0  0  0  0  0  0
   -2.9725    3.8154    1.4006 F   0  0  0  0  0  0  0  0  0  0  0  0
   -1.2800    4.3428    0.1353 F   0  0  0  0  0  0  0  0  0  0  0  0
   -2.5971    5.9007    0.9009 F   0  0  0  0  0  0  0  0  0  0  0  0
  1 11  1  0  0  0  0
  1  2  1  0  0  0  0
  2  3  1  0  0  0  0
  4  1  2  0  0  0  0
  5  6  2  0  0  0  0
  5  4  1  0  0  0  0
  6 10  1  0  0  0  0
  7  9  2  0  0  0  0
  7  6  1  0  0  0  0
  8  7  2  0  0  0  0
 10 14  1  0  0  0  0
 10 11  2  0  0  0  0
 11 15  1  0  0  0  0
 12  4  1  0  0  0  0
 13  5  1  0  0  0  0
 16 17  2  0  0  0  0
 17 19  1  0  0  0  0
 18 17  1  0  0  0  0
 19 22  1  0  0  0  0
 19 20  1  0  0  0  0
 21 19  1  0  0  0  0
M  RAD  3   2   2   3   3  18   2
M  END
