Coordinates from ORCA-job 4-NO2PhN2+~CF3COO-_B3LYPG-6-31G_dp-NX-Scan-d89-09-n800
 OpenBabel11261920383D

 22 21  0  0  0  0  0  0  0  0999 V2000
   -1.8607    0.2933    0.2972 C   0  0  0  0  0  0  0  0  0  0  0  0
   -2.7651   -0.5098    0.9091 N   0  0  0  0  0  0  0  0  0  0  0  0
   -3.4555   -1.2356    1.4234 N   0  0  0  0  0  0  0  0  0  0  0  0
   -2.2040    0.9131   -0.9283 C   0  0  0  0  0  0  0  0  0  0  0  0
   -1.1671    1.5639   -1.6192 C   0  0  0  0  0  0  0  0  0  0  0  0
    0.0839    1.6340   -1.0464 C   0  0  0  0  0  0  0  0  0  0  0  0
    1.1609    2.3231   -1.7862 N   0  0  0  0  0  0  0  0  0  0  0  0
    0.8949    2.7525   -2.9037 O   0  0  0  0  0  0  0  0  0  0  0  0
    2.2544    2.4038   -1.2297 O   0  0  0  0  0  0  0  0  0  0  0  0
    0.3965    1.0902    0.2221 C   0  0  0  0  0  0  0  0  0  0  0  0
   -0.5731    0.4125    0.9086 C   0  0  0  0  0  0  0  0  0  0  0  0
   -3.1732    0.7677   -1.3790 H   0  0  0  0  0  0  0  0  0  0  0  0
   -1.3663    2.0353   -2.5709 H   0  0  0  0  0  0  0  0  0  0  0  0
    1.3939    1.2197    0.6213 H   0  0  0  0  0  0  0  0  0  0  0  0
   -0.3866   -0.0304    1.8793 H   0  0  0  0  0  0  0  0  0  0  0  0
   -3.5150    5.2180   -0.8647 O   0  0  0  0  0  0  0  0  0  0  0  0
   -3.2741    4.0660   -0.5114 C   0  0  0  0  0  0  0  0  0  0  0  0
   -3.3664    2.9900   -1.1987 O   0  0  0  0  0  0  0  0  0  0  0  0
   -2.7657    3.8375    0.9429 C   0  0  0  0  0  0  0  0  0  0  0  0
   -3.3415    2.7415    1.5179 F   0  0  0  0  0  0  0  0  0  0  0  0
   -1.4226    3.5961    0.9433 F   0  0  0  0  0  0  0  0  0  0  0  0
   -2.9870    4.8769    1.7516 F   0  0  0  0  0  0  0  0  0  0  0  0
  1 11  1  0  0  0  0
  1  2  1  0  0  0  0
  2  3  1  0  0  0  0
  4  1  2  0  0  0  0
  5  6  2  0  0  0  0
  5  4  1  0  0  0  0
  6 10  1  0  0  0  0
  7  9  2  0  0  0  0
  7  6  1  0  0  0  0
  8  7  2  0  0  0  0
 10 14  1  0  0  0  0
 10 11  2  0  0  0  0
 11 15  1  0  0  0  0
 12  4  1  0  0  0  0
 13  5  1  0  0  0  0
 16 17  1  0  0  0  0
 17 19  1  0  0  0  0
 18 17  2  0  0  0  0
 19 21  1  0  0  0  0
 19 20  1  0  0  0  0
 19 22  1  0  0  0  0
M  RAD  3   2   2   3   3  16   2
M  END
