Coordinates from ORCA-job 4-NO2PhN2+~CF3COO-_B3LYPG-6-31G_dp-NX-Scan-d89-09-n800
 OpenBabel11261920383D

 22 22  0  0  0  0  0  0  0  0999 V2000
   -1.0753    0.9082    0.3459 C   0  0  0  0  0  0  0  0  0  0  0  0
   -1.8610    0.6538    1.4998 N   0  0  0  0  0  0  0  0  0  0  0  0
   -2.7704    1.2579    2.0236 N   0  0  0  0  0  0  0  0  0  0  0  0
   -0.9170    2.1382   -0.3245 C   0  0  0  0  0  0  0  0  0  0  0  0
   -0.0521    2.2088   -1.4117 C   0  0  0  0  0  0  0  0  0  0  0  0
    0.6252    1.0633   -1.8249 C   0  0  0  0  0  0  0  0  0  0  0  0
    1.5303    1.1522   -2.9892 N   0  0  0  0  0  0  0  0  0  0  0  0
    1.6415    2.2460   -3.5373 O   0  0  0  0  0  0  0  0  0  0  0  0
    2.1117    0.1251   -3.3310 O   0  0  0  0  0  0  0  0  0  0  0  0
    0.4850   -0.1610   -1.1765 C   0  0  0  0  0  0  0  0  0  0  0  0
   -0.3591   -0.2262   -0.0757 C   0  0  0  0  0  0  0  0  0  0  0  0
   -1.4541    3.0184   -0.0075 H   0  0  0  0  0  0  0  0  0  0  0  0
    0.0986    3.1373   -1.9478 H   0  0  0  0  0  0  0  0  0  0  0  0
    1.0370   -1.0228   -1.5282 H   0  0  0  0  0  0  0  0  0  0  0  0
   -0.4846   -1.1501    0.4774 H   0  0  0  0  0  0  0  0  0  0  0  0
   -3.1554    2.5054    1.2633 O   0  0  0  0  0  0  0  0  0  0  0  0
   -4.0896    3.2443    1.8987 C   0  0  0  0  0  0  0  0  0  0  0  0
   -4.5881    3.0621    2.9720 O   0  0  0  0  0  0  0  0  0  0  0  0
   -4.4597    4.4343    0.9765 C   0  0  0  0  0  0  0  0  0  0  0  0
   -5.1790    3.9957   -0.0714 F   0  0  0  0  0  0  0  0  0  0  0  0
   -5.1759    5.3351    1.6467 F   0  0  0  0  0  0  0  0  0  0  0  0
   -3.3474    5.0331    0.5002 F   0  0  0  0  0  0  0  0  0  0  0  0
  1  2  1  0  0  0  0
  2  3  1  0  0  0  0
  4 12  1  0  0  0  0
  4  1  2  0  0  0  0
  5  4  1  0  0  0  0
  6  5  2  0  0  0  0
  6 10  1  0  0  0  0
  7  6  1  0  0  0  0
  8  7  2  0  0  0  0
  9  7  2  0  0  0  0
 10 11  2  0  0  0  0
 11  1  1  0  0  0  0
 11 15  1  0  0  0  0
 13  5  1  0  0  0  0
 14 10  1  0  0  0  0
 16 17  1  0  0  0  0
 16  3  1  0  0  0  0
 17 18  2  0  0  0  0
 19 21  1  0  0  0  0
 19 17  1  0  0  0  0
 20 19  1  0  0  0  0
 22 19  1  0  0  0  0
M  RAD  2   2   2   3   2
M  END
