Coordinates from ORCA-job 4-NO2PhN2+~CF3COO-_B3LYPG-6-31G_dp-NX-Scan-d89-09-n800
 OpenBabel11261920383D

 22 22  0  0  1  0  0  0  0  0999 V2000
   -1.8685    0.4297   -0.0664 C   0  0  0  0  0  0  0  0  0  0  0  0
   -2.9944   -0.1768    0.2543 N   0  0  0  0  0  0  0  0  0  0  0  0
   -3.9664   -0.7007    0.5308 N   0  0  0  0  0  0  0  0  0  0  0  0
   -1.9603    1.7407   -0.7855 C   0  0  2  0  0  0  0  0  0  0  0  0
   -0.6688    2.0724   -1.4561 C   0  0  0  0  0  0  0  0  0  0  0  0
    0.4706    1.4494   -1.0922 C   0  0  0  0  0  0  0  0  0  0  0  0
    1.7342    1.8814   -1.7386 N   0  0  0  0  0  0  0  0  0  0  0  0
    1.6730    2.7539   -2.6002 O   0  0  0  0  0  0  0  0  0  0  0  0
    2.7676    1.3341   -1.3602 O   0  0  0  0  0  0  0  0  0  0  0  0
    0.5472    0.3651   -0.1460 C   0  0  0  0  0  0  0  0  0  0  0  0
   -0.6125   -0.1460    0.3370 C   0  0  0  0  0  0  0  0  0  0  0  0
   -2.8117    1.7797   -1.4665 H   0  0  0  0  0  0  0  0  0  0  0  0
   -0.6515    2.8580   -2.2008 H   0  0  0  0  0  0  0  0  0  0  0  0
    1.5138   -0.0362    0.1215 H   0  0  0  0  0  0  0  0  0  0  0  0
   -0.6179   -0.9978    1.0090 H   0  0  0  0  0  0  0  0  0  0  0  0
   -4.3958    3.0142   -0.4001 O   0  0  0  0  0  0  0  0  0  0  0  0
   -3.4357    3.3624    0.2430 C   0  0  0  0  0  0  0  0  0  0  0  0
   -2.2023    2.8516    0.2051 O   0  0  0  0  0  0  0  0  0  0  0  0
   -3.4834    4.5210    1.2670 C   0  0  0  0  0  0  0  0  0  0  0  0
   -2.6486    5.5047    0.8913 F   0  0  0  0  0  0  0  0  0  0  0  0
   -4.7203    5.0136    1.3503 F   0  0  0  0  0  0  0  0  0  0  0  0
   -3.1077    4.0848    2.4818 F   0  0  0  0  0  0  0  0  0  0  0  0
  1  2  1  0  0  0  0
  1 11  2  0  0  0  0
  2  3  1  0  0  0  0
  4 12  1  6  0  0  0
  4  1  1  0  0  0  0
  4 18  1  0  0  0  0
  5  6  2  0  0  0  0
  5  4  1  0  0  0  0
  6 10  1  0  0  0  0
  7  9  2  0  0  0  0
  7  6  1  0  0  0  0
  8  7  2  0  0  0  0
 10 14  1  0  0  0  0
 10 11  1  0  0  0  0
 11 15  1  0  0  0  0
 13  5  1  0  0  0  0
 16 17  2  0  0  0  0
 17 19  1  0  0  0  0
 18 17  1  0  0  0  0
 19 21  1  0  0  0  0
 19 22  1  0  0  0  0
 20 19  1  0  0  0  0
M  RAD  3   2   2   3   3  10   2
M  END
