Coordinates from ORCA-job 4-NO2PhN2+~CF3COO-_B3LYPG-6-31G_dp-NX-Scan-d89-09-n800
 OpenBabel11261920383D

 22 21  0  0  0  0  0  0  0  0999 V2000
   -1.7930   -0.2039    0.2959 C   0  0  0  0  0  0  0  0  0  0  0  0
   -2.6176   -1.1863    0.7594 N   0  0  0  0  0  0  0  0  0  0  0  0
   -3.2217   -2.0520    1.1512 N   0  0  0  0  0  0  0  0  0  0  0  0
   -2.2644    0.7329   -0.6549 C   0  0  0  0  0  0  0  0  0  0  0  0
   -1.3313    1.6157   -1.1933 C   0  0  0  0  0  0  0  0  0  0  0  0
   -0.0211    1.5826   -0.7329 C   0  0  0  0  0  0  0  0  0  0  0  0
    0.9586    2.5184   -1.3169 N   0  0  0  0  0  0  0  0  0  0  0  0
    0.5873    3.2037   -2.2615 O   0  0  0  0  0  0  0  0  0  0  0  0
    2.0837    2.5263   -0.8181 O   0  0  0  0  0  0  0  0  0  0  0  0
    0.4253    0.7005    0.2666 C   0  0  0  0  0  0  0  0  0  0  0  0
   -0.4547   -0.2179    0.7881 C   0  0  0  0  0  0  0  0  0  0  0  0
   -3.2987    0.7839   -0.9703 H   0  0  0  0  0  0  0  0  0  0  0  0
   -1.6589    2.3474   -1.9183 H   0  0  0  0  0  0  0  0  0  0  0  0
    1.4533    0.7554    0.6010 H   0  0  0  0  0  0  0  0  0  0  0  0
   -0.1555   -0.9329    1.5456 H   0  0  0  0  0  0  0  0  0  0  0  0
   -3.9559    5.3703   -1.2275 O   0  0  0  0  0  0  0  0  0  0  0  0
   -3.4734    4.3348   -0.7620 C   0  0  0  0  0  0  0  0  0  0  0  0
   -3.6175    3.1369   -1.1686 O   0  0  0  0  0  0  0  0  0  0  0  0
   -2.5180    4.4691    0.4624 C   0  0  0  0  0  0  0  0  0  0  0  0
   -2.7278    3.4928    1.3843 F   0  0  0  0  0  0  0  0  0  0  0  0
   -1.2173    4.3348    0.0600 F   0  0  0  0  0  0  0  0  0  0  0  0
   -2.6209    5.6468    1.0880 F   0  0  0  0  0  0  0  0  0  0  0  0
  1  2  1  0  0  0  0
  1 11  1  0  0  0  0
  2  3  1  0  0  0  0
  4  1  2  0  0  0  0
  5  6  2  0  0  0  0
  5  4  1  0  0  0  0
  6 10  1  0  0  0  0
  7  9  2  0  0  0  0
  7  6  1  0  0  0  0
  8  7  2  0  0  0  0
 10 14  1  0  0  0  0
 10 11  2  0  0  0  0
 11 15  1  0  0  0  0
 12  4  1  0  0  0  0
 13  5  1  0  0  0  0
 16 17  2  0  0  0  0
 17 19  1  0  0  0  0
 18 17  1  0  0  0  0
 19 22  1  0  0  0  0
 19 20  1  0  0  0  0
 21 19  1  0  0  0  0
M  RAD  3   2   2   3   3  18   2
M  END
