Coordinates from ORCA-job 4-NO2PhN2+~CF3COO-_B3LYPG-6-31G_dp-NX-Scan-d89-09-n800
 OpenBabel11261920383D

 22 22  0  0  1  0  0  0  0  0999 V2000
   -1.8250    0.2598    0.0674 C   0  0  0  0  0  0  0  0  0  0  0  0
   -2.8745   -0.4190    0.4843 N   0  0  0  0  0  0  0  0  0  0  0  0
   -3.7871   -1.0016    0.8373 N   0  0  0  0  0  0  0  0  0  0  0  0
   -2.0785    1.5563   -0.6344 C   0  0  2  0  0  0  0  0  0  0  0  0
   -0.8659    2.0127   -1.3778 C   0  0  0  0  0  0  0  0  0  0  0  0
    0.3438    1.4851   -1.1017 C   0  0  0  0  0  0  0  0  0  0  0  0
    1.5216    2.0377   -1.8161 N   0  0  0  0  0  0  0  0  0  0  0  0
    1.3320    2.9294   -2.6381 O   0  0  0  0  0  0  0  0  0  0  0  0
    2.6181    1.5596   -1.5330 O   0  0  0  0  0  0  0  0  0  0  0  0
    0.5755    0.3942   -0.1880 C   0  0  0  0  0  0  0  0  0  0  0  0
   -0.5004   -0.2159    0.3678 C   0  0  0  0  0  0  0  0  0  0  0  0
   -2.9582    1.5301   -1.2808 H   0  0  0  0  0  0  0  0  0  0  0  0
   -0.9729    2.8099   -2.1025 H   0  0  0  0  0  0  0  0  0  0  0  0
    1.5881    0.0690    0.0017 H   0  0  0  0  0  0  0  0  0  0  0  0
   -0.3879   -1.0731    1.0231 H   0  0  0  0  0  0  0  0  0  0  0  0
   -3.5388    3.8316   -1.1066 O   0  0  0  0  0  0  0  0  0  0  0  0
   -3.1433    3.6167    0.0131 C   0  0  0  0  0  0  0  0  0  0  0  0
   -2.4083    2.5805    0.4232 O   0  0  0  0  0  0  0  0  0  0  0  0
   -3.4506    4.5446    1.2120 C   0  0  0  0  0  0  0  0  0  0  0  0
   -2.3099    4.9794    1.7724 F   0  0  0  0  0  0  0  0  0  0  0  0
   -4.1639    5.5977    0.8112 F   0  0  0  0  0  0  0  0  0  0  0  0
   -4.1535    3.8747    2.1440 F   0  0  0  0  0  0  0  0  0  0  0  0
  1 11  2  0  0  0  0
  1  2  1  0  0  0  0
  2  3  1  0  0  0  0
  4 12  1  6  0  0  0
  4  1  1  0  0  0  0
  4 18  1  0  0  0  0
  5  6  2  0  0  0  0
  5  4  1  0  0  0  0
  6 10  1  0  0  0  0
  7  9  2  0  0  0  0
  7  6  1  0  0  0  0
  8  7  2  0  0  0  0
 10 14  1  0  0  0  0
 10 11  1  0  0  0  0
 11 15  1  0  0  0  0
 13  5  1  0  0  0  0
 16 17  2  0  0  0  0
 17 18  1  0  0  0  0
 17 19  1  0  0  0  0
 19 20  1  0  0  0  0
 19 22  1  0  0  0  0
 21 19  1  0  0  0  0
M  RAD  3   2   2   3   3  10   2
M  END
