Coordinates from ORCA-job 4-NO2PhN2+~CF3COO-_B3LYPG-6-31G_dp-NX-Scan-d89-09-n800
 OpenBabel11261920383D

 22 21  0  0  0  0  0  0  0  0999 V2000
   -1.8629    0.3625    0.2872 C   0  0  0  0  0  0  0  0  0  0  0  0
   -2.7901   -0.3946    0.9184 N   0  0  0  0  0  0  0  0  0  0  0  0
   -3.5103   -1.0784    1.4494 N   0  0  0  0  0  0  0  0  0  0  0  0
   -2.1905    0.9527   -0.9585 C   0  0  0  0  0  0  0  0  0  0  0  0
   -1.1326    1.5597   -1.6643 C   0  0  0  0  0  0  0  0  0  0  0  0
    0.1118    1.6303   -1.0828 C   0  0  0  0  0  0  0  0  0  0  0  0
    1.2059    2.2789   -1.8362 N   0  0  0  0  0  0  0  0  0  0  0  0
    0.9554    2.6776   -2.9685 O   0  0  0  0  0  0  0  0  0  0  0  0
    2.2972    2.3562   -1.2754 O   0  0  0  0  0  0  0  0  0  0  0  0
    0.4083    1.1192    0.2049 C   0  0  0  0  0  0  0  0  0  0  0  0
   -0.5772    0.4802    0.9038 C   0  0  0  0  0  0  0  0  0  0  0  0
   -3.1455    0.7715   -1.4255 H   0  0  0  0  0  0  0  0  0  0  0  0
   -1.3135    1.9981   -2.6355 H   0  0  0  0  0  0  0  0  0  0  0  0
    1.4051    1.2442    0.6066 H   0  0  0  0  0  0  0  0  0  0  0  0
   -0.4057    0.0655    1.8896 H   0  0  0  0  0  0  0  0  0  0  0  0
   -3.5289    5.1765   -0.8002 O   0  0  0  0  0  0  0  0  0  0  0  0
   -3.2790    4.0232   -0.4621 C   0  0  0  0  0  0  0  0  0  0  0  0
   -3.3376    2.9594   -1.1753 O   0  0  0  0  0  0  0  0  0  0  0  0
   -2.8129    3.7742    1.0021 C   0  0  0  0  0  0  0  0  0  0  0  0
   -3.4073    2.6700    1.5440 F   0  0  0  0  0  0  0  0  0  0  0  0
   -1.4713    3.5310    1.0383 F   0  0  0  0  0  0  0  0  0  0  0  0
   -3.0580    4.8014    1.8183 F   0  0  0  0  0  0  0  0  0  0  0  0
  1 11  1  0  0  0  0
  1  2  1  0  0  0  0
  2  3  1  0  0  0  0
  4  1  2  0  0  0  0
  5  6  2  0  0  0  0
  5  4  1  0  0  0  0
  6 10  1  0  0  0  0
  7  9  2  0  0  0  0
  7  6  1  0  0  0  0
  8  7  2  0  0  0  0
 10 14  1  0  0  0  0
 10 11  2  0  0  0  0
 11 15  1  0  0  0  0
 12  4  1  0  0  0  0
 13  5  1  0  0  0  0
 16 17  1  0  0  0  0
 17 19  1  0  0  0  0
 18 17  2  0  0  0  0
 19 21  1  0  0  0  0
 19 20  1  0  0  0  0
 19 22  1  0  0  0  0
M  RAD  3   2   2   3   3  16   2
M  END
