Coordinates from ORCA-job 4-NO2PhN2+~CF3COO-_B3LYPG-6-31G_dp-NX-Scan-d89-09-n800
 OpenBabel11261920383D

 22 21  0  0  0  0  0  0  0  0999 V2000
   -1.8539    0.4899    0.2711 C   0  0  0  0  0  0  0  0  0  0  0  0
   -2.8138   -0.1823    0.9384 N   0  0  0  0  0  0  0  0  0  0  0  0
   -3.5830   -0.7841    1.4990 N   0  0  0  0  0  0  0  0  0  0  0  0
   -2.1687    1.0390   -1.0017 C   0  0  0  0  0  0  0  0  0  0  0  0
   -1.0741    1.5515   -1.7436 C   0  0  0  0  0  0  0  0  0  0  0  0
    0.1634    1.6192   -1.1577 C   0  0  0  0  0  0  0  0  0  0  0  0
    1.2847    2.1791   -1.9458 N   0  0  0  0  0  0  0  0  0  0  0  0
    1.0540    2.5139   -3.1027 O   0  0  0  0  0  0  0  0  0  0  0  0
    2.3751    2.2546   -1.3839 O   0  0  0  0  0  0  0  0  0  0  0  0
    0.4408    1.1738    0.1619 C   0  0  0  0  0  0  0  0  0  0  0  0
   -0.5667    0.6051    0.8865 C   0  0  0  0  0  0  0  0  0  0  0  0
   -3.0953    0.7813   -1.4894 H   0  0  0  0  0  0  0  0  0  0  0  0
   -1.2291    1.9232   -2.7468 H   0  0  0  0  0  0  0  0  0  0  0  0
    1.4395    1.2899    0.5609 H   0  0  0  0  0  0  0  0  0  0  0  0
   -0.4132    0.2412    1.8951 H   0  0  0  0  0  0  0  0  0  0  0  0
   -3.4627    5.1179   -0.6923 O   0  0  0  0  0  0  0  0  0  0  0  0
   -3.2492    3.9562   -0.3695 C   0  0  0  0  0  0  0  0  0  0  0  0
   -3.2491    2.9181   -1.1307 O   0  0  0  0  0  0  0  0  0  0  0  0
   -2.9442    3.6595    1.1258 C   0  0  0  0  0  0  0  0  0  0  0  0
   -3.5996    2.5422    1.5631 F   0  0  0  0  0  0  0  0  0  0  0  0
   -1.6168    3.4081    1.3010 F   0  0  0  0  0  0  0  0  0  0  0  0
   -3.2774    4.6619    1.9397 F   0  0  0  0  0  0  0  0  0  0  0  0
  1 11  1  0  0  0  0
  1  2  1  0  0  0  0
  2  3  1  0  0  0  0
  4  1  2  0  0  0  0
  5  6  2  0  0  0  0
  5  4  1  0  0  0  0
  6 10  1  0  0  0  0
  7  9  2  0  0  0  0
  7  6  1  0  0  0  0
  8  7  2  0  0  0  0
 10 14  1  0  0  0  0
 10 11  2  0  0  0  0
 11 15  1  0  0  0  0
 12  4  1  0  0  0  0
 13  5  1  0  0  0  0
 16 17  1  0  0  0  0
 17 19  1  0  0  0  0
 18 17  2  0  0  0  0
 19 21  1  0  0  0  0
 19 20  1  0  0  0  0
 19 22  1  0  0  0  0
M  RAD  3   2   2   3   3  16   2
M  END
