Coordinates from ORCA-job 4-NO2PhN2+~CF3COO-_B3LYPG-6-31G_dp-NX-Scan-d89-09-n800
 OpenBabel11261920383D

 22 21  0  0  0  0  0  0  0  0999 V2000
   -1.6846   -0.7182    0.2836 C   0  0  0  0  0  0  0  0  0  0  0  0
   -2.3841   -1.8382    0.6220 N   0  0  0  0  0  0  0  0  0  0  0  0
   -2.9407   -2.7715    0.9201 N   0  0  0  0  0  0  0  0  0  0  0  0
   -2.3535    0.3494   -0.3643 C   0  0  0  0  0  0  0  0  0  0  0  0
   -1.6075    1.4537   -0.7504 C   0  0  0  0  0  0  0  0  0  0  0  0
   -0.2457    1.4698   -0.4418 C   0  0  0  0  0  0  0  0  0  0  0  0
    0.5740    2.6104   -0.9001 N   0  0  0  0  0  0  0  0  0  0  0  0
    0.0770    3.3548   -1.7329 O   0  0  0  0  0  0  0  0  0  0  0  0
    1.7026    2.7084   -0.4175 O   0  0  0  0  0  0  0  0  0  0  0  0
    0.4047    0.4462    0.2603 C   0  0  0  0  0  0  0  0  0  0  0  0
   -0.3053   -0.6821    0.6174 C   0  0  0  0  0  0  0  0  0  0  0  0
   -3.4226    0.3186   -0.5440 H   0  0  0  0  0  0  0  0  0  0  0  0
   -2.1245    2.3126   -1.2079 H   0  0  0  0  0  0  0  0  0  0  0  0
    1.4572    0.5496    0.4929 H   0  0  0  0  0  0  0  0  0  0  0  0
    0.1616   -1.5150    1.1299 H   0  0  0  0  0  0  0  0  0  0  0  0
   -3.9727    5.7016   -1.4921 O   0  0  0  0  0  0  0  0  0  0  0  0
   -3.3448    4.7525   -1.0039 C   0  0  0  0  0  0  0  0  0  0  0  0
   -3.4807    3.5199   -1.2571 O   0  0  0  0  0  0  0  0  0  0  0  0
   -2.2531    5.1428    0.0383 C   0  0  0  0  0  0  0  0  0  0  0  0
   -1.7170    4.0565    0.6710 F   0  0  0  0  0  0  0  0  0  0  0  0
   -1.2285    5.7950   -0.5461 F   0  0  0  0  0  0  0  0  0  0  0  0
   -2.7513    5.9425    1.0009 F   0  0  0  0  0  0  0  0  0  0  0  0
  1 11  1  0  0  0  0
  1  2  1  0  0  0  0
  2  3  1  0  0  0  0
  4  1  2  0  0  0  0
  5  6  2  0  0  0  0
  5  4  1  0  0  0  0
  6 10  1  0  0  0  0
  7  6  1  0  0  0  0
  7  9  2  0  0  0  0
  8  7  2  0  0  0  0
 10 14  1  0  0  0  0
 10 11  2  0  0  0  0
 11 15  1  0  0  0  0
 12  4  1  0  0  0  0
 13  5  1  0  0  0  0
 16 17  2  0  0  0  0
 17 19  1  0  0  0  0
 18 17  1  0  0  0  0
 19 20  1  0  0  0  0
 19 22  1  0  0  0  0
 21 19  1  0  0  0  0
M  RAD  3   2   2   3   3  18   2
M  END
