Coordinates from ORCA-job 4-NO2PhN2+~CF3COO-_B3LYPG-6-31G_dp-NX-Scan-d89-09-n800
 OpenBabel11261920383D

 22 21  0  0  0  0  0  0  0  0999 V2000
   -1.8557   -0.0788    0.2885 C   0  0  0  0  0  0  0  0  0  0  0  0
   -2.6958   -1.0338    0.7738 N   0  0  0  0  0  0  0  0  0  0  0  0
   -3.3153   -1.8810    1.1818 N   0  0  0  0  0  0  0  0  0  0  0  0
   -2.2764    0.7541   -0.7750 C   0  0  0  0  0  0  0  0  0  0  0  0
   -1.3173    1.5968   -1.3380 C   0  0  0  0  0  0  0  0  0  0  0  0
   -0.0431    1.6313   -0.7941 C   0  0  0  0  0  0  0  0  0  0  0  0
    0.9584    2.5294   -1.3984 N   0  0  0  0  0  0  0  0  0  0  0  0
    0.6294    3.1425   -2.4070 O   0  0  0  0  0  0  0  0  0  0  0  0
    2.0591    2.5825   -0.8515 O   0  0  0  0  0  0  0  0  0  0  0  0
    0.3475    0.8583    0.3169 C   0  0  0  0  0  0  0  0  0  0  0  0
   -0.5533   -0.0165    0.8701 C   0  0  0  0  0  0  0  0  0  0  0  0
   -3.2837    0.7307   -1.1664 H   0  0  0  0  0  0  0  0  0  0  0  0
   -1.5915    2.2482   -2.1549 H   0  0  0  0  0  0  0  0  0  0  0  0
    1.3504    0.9659    0.7093 H   0  0  0  0  0  0  0  0  0  0  0  0
   -0.2991   -0.6453    1.7151 H   0  0  0  0  0  0  0  0  0  0  0  0
   -3.8771    5.2707   -1.0680 O   0  0  0  0  0  0  0  0  0  0  0  0
   -3.4149    4.2024   -0.6636 C   0  0  0  0  0  0  0  0  0  0  0  0
   -3.6036    3.0288   -1.1238 O   0  0  0  0  0  0  0  0  0  0  0  0
   -2.4217    4.2647    0.5373 C   0  0  0  0  0  0  0  0  0  0  0  0
   -2.5075    3.1714    1.3444 F   0  0  0  0  0  0  0  0  0  0  0  0
   -1.1357    4.2913    0.0758 F   0  0  0  0  0  0  0  0  0  0  0  0
   -2.5924    5.3456    1.3059 F   0  0  0  0  0  0  0  0  0  0  0  0
  1  2  1  0  0  0  0
  1 11  1  0  0  0  0
  2  3  1  0  0  0  0
  4  1  2  0  0  0  0
  5  6  2  0  0  0  0
  5  4  1  0  0  0  0
  6 10  1  0  0  0  0
  7  9  2  0  0  0  0
  7  6  1  0  0  0  0
  8  7  2  0  0  0  0
 10 14  1  0  0  0  0
 10 11  2  0  0  0  0
 11 15  1  0  0  0  0
 12  4  1  0  0  0  0
 13  5  1  0  0  0  0
 16 17  1  0  0  0  0
 17 19  1  0  0  0  0
 18 17  2  0  0  0  0
 19 22  1  0  0  0  0
 19 20  1  0  0  0  0
 21 19  1  0  0  0  0
M  RAD  3   2   2   3   3  16   2
M  END
