Coordinates from ORCA-job 4-NO2PhN2+~CF3COO-_B3LYPG-6-31G_dp-NX-Scan-d89-09-n800
 OpenBabel11261920383D

 22 22  0  0  1  0  0  0  0  0999 V2000
   -1.8537    0.5144   -0.1241 C   0  0  0  0  0  0  0  0  0  0  0  0
   -3.0552    0.0806    0.2309 N   0  0  0  0  0  0  0  0  0  0  0  0
   -4.1660    0.0415    0.4687 N   0  0  0  0  0  0  0  0  0  0  0  0
   -1.8595    1.8338   -0.8277 C   0  0  2  0  0  0  0  0  0  0  0  0
   -0.5322    2.1313   -1.4256 C   0  0  0  0  0  0  0  0  0  0  0  0
    0.5547    1.4024   -1.0885 C   0  0  0  0  0  0  0  0  0  0  0  0
    1.8577    1.7957   -1.6833 N   0  0  0  0  0  0  0  0  0  0  0  0
    1.8726    2.7388   -2.4691 O   0  0  0  0  0  0  0  0  0  0  0  0
    2.8438    1.1466   -1.3419 O   0  0  0  0  0  0  0  0  0  0  0  0
    0.5424    0.2486   -0.2311 C   0  0  0  0  0  0  0  0  0  0  0  0
   -0.6609   -0.1940    0.2207 C   0  0  0  0  0  0  0  0  0  0  0  0
   -2.6753    1.9108   -1.5514 H   0  0  0  0  0  0  0  0  0  0  0  0
   -0.4416    2.9642   -2.1110 H   0  0  0  0  0  0  0  0  0  0  0  0
    1.4721   -0.2481    0.0039 H   0  0  0  0  0  0  0  0  0  0  0  0
   -0.7396   -1.0817    0.8395 H   0  0  0  0  0  0  0  0  0  0  0  0
   -4.3211    2.3351    0.3531 O   0  0  0  0  0  0  0  0  0  0  0  0
   -3.4184    3.1299    0.5142 C   0  0  0  0  0  0  0  0  0  0  0  0
   -2.1545    3.0025    0.1313 O   0  0  0  0  0  0  0  0  0  0  0  0
   -3.6308    4.4924    1.2148 C   0  0  0  0  0  0  0  0  0  0  0  0
   -3.4844    5.4876    0.3215 F   0  0  0  0  0  0  0  0  0  0  0  0
   -4.8573    4.5601    1.7360 F   0  0  0  0  0  0  0  0  0  0  0  0
   -2.7323    4.6667    2.1975 F   0  0  0  0  0  0  0  0  0  0  0  0
  1 11  2  0  0  0  0
  1  2  1  0  0  0  0
  2  3  1  0  0  0  0
  4 12  1  6  0  0  0
  4  1  1  0  0  0  0
  4 18  1  0  0  0  0
  5  6  2  0  0  0  0
  5  4  1  0  0  0  0
  6 10  1  0  0  0  0
  7  9  2  0  0  0  0
  7  6  1  0  0  0  0
  8  7  2  0  0  0  0
 10 14  1  0  0  0  0
 10 11  1  0  0  0  0
 11 15  1  0  0  0  0
 13  5  1  0  0  0  0
 16 17  2  0  0  0  0
 17 19  1  0  0  0  0
 18 17  1  0  0  0  0
 19 21  1  0  0  0  0
 19 22  1  0  0  0  0
 20 19  1  0  0  0  0
M  RAD  3   2   2   3   3  10   2
M  END
