Coordinates from ORCA-job 4-NO2PhN2+~CF3COO-_B3LYPG-6-31G_dp-NX-Scan-d89-09-n800
 OpenBabel11261920383D

 22 22  0  0  1  0  0  0  0  0999 V2000
   -1.8391    0.3559   -0.0013 C   0  0  0  0  0  0  0  0  0  0  0  0
   -2.9370   -0.2695    0.3725 N   0  0  0  0  0  0  0  0  0  0  0  0
   -3.8944   -0.7990    0.6889 N   0  0  0  0  0  0  0  0  0  0  0  0
   -2.0017    1.6603   -0.7182 C   0  0  2  0  0  0  0  0  0  0  0  0
   -0.7434    2.0433   -1.4243 C   0  0  0  0  0  0  0  0  0  0  0  0
    0.4281    1.4590   -1.1003 C   0  0  0  0  0  0  0  0  0  0  0  0
    1.6555    1.9415   -1.7801 N   0  0  0  0  0  0  0  0  0  0  0  0
    1.5379    2.8231   -2.6265 O   0  0  0  0  0  0  0  0  0  0  0  0
    2.7179    1.4230   -1.4436 O   0  0  0  0  0  0  0  0  0  0  0  0
    0.5722    0.3709   -0.1659 C   0  0  0  0  0  0  0  0  0  0  0  0
   -0.5523   -0.1803    0.3547 C   0  0  0  0  0  0  0  0  0  0  0  0
   -2.8686    1.6757   -1.3806 H   0  0  0  0  0  0  0  0  0  0  0  0
   -0.7781    2.8334   -2.1640 H   0  0  0  0  0  0  0  0  0  0  0  0
    1.5601    0.0001    0.0655 H   0  0  0  0  0  0  0  0  0  0  0  0
   -0.5062   -1.0337    1.0229 H   0  0  0  0  0  0  0  0  0  0  0  0
   -4.1517    3.4238   -0.7985 O   0  0  0  0  0  0  0  0  0  0  0  0
   -3.3582    3.4923    0.1078 C   0  0  0  0  0  0  0  0  0  0  0  0
   -2.2757    2.7338    0.3044 O   0  0  0  0  0  0  0  0  0  0  0  0
   -3.4775    4.5226    1.2556 C   0  0  0  0  0  0  0  0  0  0  0  0
   -2.3837    5.3014    1.2982 F   0  0  0  0  0  0  0  0  0  0  0  0
   -4.5501    5.2944    1.0756 F   0  0  0  0  0  0  0  0  0  0  0  0
   -3.5937    3.8872    2.4356 F   0  0  0  0  0  0  0  0  0  0  0  0
  1 11  2  0  0  0  0
  1  2  1  0  0  0  0
  2  3  1  0  0  0  0
  4 12  1  6  0  0  0
  4  1  1  0  0  0  0
  4 18  1  0  0  0  0
  5  6  2  0  0  0  0
  5  4  1  0  0  0  0
  6 10  1  0  0  0  0
  7  9  2  0  0  0  0
  7  6  1  0  0  0  0
  8  7  2  0  0  0  0
 10 14  1  0  0  0  0
 10 11  1  0  0  0  0
 11 15  1  0  0  0  0
 13  5  1  0  0  0  0
 16 17  2  0  0  0  0
 17 18  1  0  0  0  0
 17 19  1  0  0  0  0
 19 20  1  0  0  0  0
 19 22  1  0  0  0  0
 21 19  1  0  0  0  0
M  RAD  3   2   2   3   3  10   2
M  END
