Coordinates from ORCA-job 4-NO2PhN2+~CF3COO-_B3LYPG-6-31G_dp-NX-Scan-d89-09-n800
 OpenBabel11261920383D

 22 22  0  0  1  0  0  0  0  0999 V2000
   -1.8324    0.3250    0.0201 C   0  0  0  0  0  0  0  0  0  0  0  0
   -2.9190   -0.3108    0.4086 N   0  0  0  0  0  0  0  0  0  0  0  0
   -3.8696   -0.8460    0.7354 N   0  0  0  0  0  0  0  0  0  0  0  0
   -2.0218    1.6282   -0.6908 C   0  0  2  0  0  0  0  0  0  0  0  0
   -0.7769    2.0343   -1.4080 C   0  0  0  0  0  0  0  0  0  0  0  0
    0.4063    1.4653   -1.0998 C   0  0  0  0  0  0  0  0  0  0  0  0
    1.6194    1.9702   -1.7891 N   0  0  0  0  0  0  0  0  0  0  0  0
    1.4806    2.8578   -2.6258 O   0  0  0  0  0  0  0  0  0  0  0  0
    2.6922    1.4622   -1.4701 O   0  0  0  0  0  0  0  0  0  0  0  0
    0.5760    0.3733   -0.1741 C   0  0  0  0  0  0  0  0  0  0  0  0
   -0.5345   -0.1959    0.3571 C   0  0  0  0  0  0  0  0  0  0  0  0
   -2.8928    1.6340   -1.3483 H   0  0  0  0  0  0  0  0  0  0  0  0
   -0.8326    2.8280   -2.1425 H   0  0  0  0  0  0  0  0  0  0  0  0
    1.5716    0.0145    0.0431 H   0  0  0  0  0  0  0  0  0  0  0  0
   -0.4686   -1.0522    1.0199 H   0  0  0  0  0  0  0  0  0  0  0  0
   -3.9992    3.5576   -0.9158 O   0  0  0  0  0  0  0  0  0  0  0  0
   -3.3061    3.5327    0.0714 C   0  0  0  0  0  0  0  0  0  0  0  0
   -2.3112    2.6842    0.3457 O   0  0  0  0  0  0  0  0  0  0  0  0
   -3.4710    4.5283    1.2438 C   0  0  0  0  0  0  0  0  0  0  0  0
   -2.3354    5.2220    1.4277 F   0  0  0  0  0  0  0  0  0  0  0  0
   -4.4629    5.3828    0.9901 F   0  0  0  0  0  0  0  0  0  0  0  0
   -3.7514    3.8634    2.3794 F   0  0  0  0  0  0  0  0  0  0  0  0
  1 11  2  0  0  0  0
  1  2  1  0  0  0  0
  2  3  1  0  0  0  0
  4 12  1  6  0  0  0
  4  1  1  0  0  0  0
  4 18  1  0  0  0  0
  5  6  2  0  0  0  0
  5  4  1  0  0  0  0
  6 10  1  0  0  0  0
  7  9  2  0  0  0  0
  7  6  1  0  0  0  0
  8  7  2  0  0  0  0
 10 14  1  0  0  0  0
 10 11  1  0  0  0  0
 11 15  1  0  0  0  0
 13  5  1  0  0  0  0
 16 17  2  0  0  0  0
 17 18  1  0  0  0  0
 17 19  1  0  0  0  0
 19 20  1  0  0  0  0
 19 22  1  0  0  0  0
 21 19  1  0  0  0  0
M  RAD  3   2   2   3   3  10   2
M  END
