Coordinates from ORCA-job 4-NO2PhN2+~CF3COO-_B3LYPG-6-31G_dp-NX-Scan-d89-09-n800
 OpenBabel11261920383D

 22 22  0  0  0  0  0  0  0  0999 V2000
   -1.1074    0.8350    0.2643 C   0  0  0  0  0  0  0  0  0  0  0  0
   -1.9539    0.5876    1.3695 N   0  0  0  0  0  0  0  0  0  0  0  0
   -2.8425    1.1395    1.9326 N   0  0  0  0  0  0  0  0  0  0  0  0
   -1.0207    2.0488   -0.4455 C   0  0  0  0  0  0  0  0  0  0  0  0
   -0.1147    2.1418   -1.4972 C   0  0  0  0  0  0  0  0  0  0  0  0
    0.6703    1.0379   -1.8250 C   0  0  0  0  0  0  0  0  0  0  0  0
    1.6224    1.1517   -2.9517 N   0  0  0  0  0  0  0  0  0  0  0  0
    1.6716    2.2270   -3.5424 O   0  0  0  0  0  0  0  0  0  0  0  0
    2.2982    0.1614   -3.2188 O   0  0  0  0  0  0  0  0  0  0  0  0
    0.5963   -0.1682   -1.1329 C   0  0  0  0  0  0  0  0  0  0  0  0
   -0.2970   -0.2616   -0.0735 C   0  0  0  0  0  0  0  0  0  0  0  0
   -1.6452    2.8876   -0.1783 H   0  0  0  0  0  0  0  0  0  0  0  0
   -0.0123    3.0559   -2.0684 H   0  0  0  0  0  0  0  0  0  0  0  0
    1.2298   -0.9958   -1.4243 H   0  0  0  0  0  0  0  0  0  0  0  0
   -0.3857   -1.1746    0.5043 H   0  0  0  0  0  0  0  0  0  0  0  0
   -3.2346    2.5736    1.1921 O   0  0  0  0  0  0  0  0  0  0  0  0
   -4.0749    3.3053    1.9180 C   0  0  0  0  0  0  0  0  0  0  0  0
   -4.4959    3.1100    3.0281 O   0  0  0  0  0  0  0  0  0  0  0  0
   -4.4926    4.5455    1.0796 C   0  0  0  0  0  0  0  0  0  0  0  0
   -5.3352    4.1748    0.0972 F   0  0  0  0  0  0  0  0  0  0  0  0
   -5.1007    5.4521    1.8451 F   0  0  0  0  0  0  0  0  0  0  0  0
   -3.4146    5.1239    0.5052 F   0  0  0  0  0  0  0  0  0  0  0  0
  1  2  1  0  0  0  0
  2  3  1  0  0  0  0
  4 12  1  0  0  0  0
  4  1  2  0  0  0  0
  5  4  1  0  0  0  0
  6  5  2  0  0  0  0
  6 10  1  0  0  0  0
  7  6  1  0  0  0  0
  8  7  2  0  0  0  0
  9  7  2  0  0  0  0
 10 11  2  0  0  0  0
 11  1  1  0  0  0  0
 11 15  1  0  0  0  0
 13  5  1  0  0  0  0
 14 10  1  0  0  0  0
 16 17  1  0  0  0  0
 16  3  1  0  0  0  0
 17 18  2  0  0  0  0
 19 21  1  0  0  0  0
 19 17  1  0  0  0  0
 20 19  1  0  0  0  0
 22 19  1  0  0  0  0
M  RAD  2   2   2   3   2
M  END
