Coordinates from ORCA-job 4-NO2PhN2+~CF3COO-_B3LYPG-6-31G_dp-NX-Scan-d89-09-n800
 OpenBabel11261920383D

 22 22  0  0  1  0  0  0  0  0999 V2000
   -1.8482    0.5085   -0.1215 C   0  0  0  0  0  0  0  0  0  0  0  0
   -3.0508    0.0814    0.2416 N   0  0  0  0  0  0  0  0  0  0  0  0
   -4.1633    0.0787    0.4793 N   0  0  0  0  0  0  0  0  0  0  0  0
   -1.8555    1.8294   -0.8202 C   0  0  2  0  0  0  0  0  0  0  0  0
   -0.5298    2.1326   -1.4162 C   0  0  0  0  0  0  0  0  0  0  0  0
    0.5575    1.3993   -1.0884 C   0  0  0  0  0  0  0  0  0  0  0  0
    1.8595    1.7975   -1.6822 N   0  0  0  0  0  0  0  0  0  0  0  0
    1.8736    2.7496   -2.4572 O   0  0  0  0  0  0  0  0  0  0  0  0
    2.8459    1.1439   -1.3503 O   0  0  0  0  0  0  0  0  0  0  0  0
    0.5463    0.2375   -0.2425 C   0  0  0  0  0  0  0  0  0  0  0  0
   -0.6564   -0.2061    0.2107 C   0  0  0  0  0  0  0  0  0  0  0  0
   -2.6725    1.9102   -1.5421 H   0  0  0  0  0  0  0  0  0  0  0  0
   -0.4397    2.9718   -2.0939 H   0  0  0  0  0  0  0  0  0  0  0  0
    1.4759   -0.2634   -0.0160 H   0  0  0  0  0  0  0  0  0  0  0  0
   -0.7347   -1.0986    0.8227 H   0  0  0  0  0  0  0  0  0  0  0  0
   -4.3250    2.3316    0.3640 O   0  0  0  0  0  0  0  0  0  0  0  0
   -3.4218    3.1280    0.5201 C   0  0  0  0  0  0  0  0  0  0  0  0
   -2.1567    2.9975    0.1457 O   0  0  0  0  0  0  0  0  0  0  0  0
   -3.6395    4.4968    1.2069 C   0  0  0  0  0  0  0  0  0  0  0  0
   -3.4934    5.4832    0.3037 F   0  0  0  0  0  0  0  0  0  0  0  0
   -4.8673    4.5669    1.7247 F   0  0  0  0  0  0  0  0  0  0  0  0
   -2.7437    4.6830    2.1896 F   0  0  0  0  0  0  0  0  0  0  0  0
  1 11  2  0  0  0  0
  1  2  1  0  0  0  0
  2  3  1  0  0  0  0
  4 12  1  6  0  0  0
  4  1  1  0  0  0  0
  4 18  1  0  0  0  0
  5  6  2  0  0  0  0
  5  4  1  0  0  0  0
  6 10  1  0  0  0  0
  7  9  2  0  0  0  0
  7  6  1  0  0  0  0
  8  7  2  0  0  0  0
 10 14  1  0  0  0  0
 10 11  1  0  0  0  0
 11 15  1  0  0  0  0
 13  5  1  0  0  0  0
 16 17  2  0  0  0  0
 17 19  1  0  0  0  0
 18 17  1  0  0  0  0
 19 21  1  0  0  0  0
 19 22  1  0  0  0  0
 20 19  1  0  0  0  0
M  RAD  3   2   2   3   3  10   2
M  END
