Coordinates from ORCA-job 4-NO2PhN2+~CF3COO-_B3LYPG-6-31G_dp-NX-Scan-d89-09-n800
 OpenBabel11261920383D

 22 22  0  0  1  0  0  0  0  0999 V2000
   -1.8982    0.5064   -0.1167 C   0  0  0  0  0  0  0  0  0  0  0  0
   -3.0463   -0.0836    0.1586 N   0  0  0  0  0  0  0  0  0  0  0  0
   -4.0324   -0.5968    0.3961 N   0  0  0  0  0  0  0  0  0  0  0  0
   -1.9318    1.8107   -0.8519 C   0  0  2  0  0  0  0  0  0  0  0  0
   -0.6166    2.0910   -1.4990 C   0  0  0  0  0  0  0  0  0  0  0  0
    0.4951    1.4449   -1.0920 C   0  0  0  0  0  0  0  0  0  0  0  0
    1.7859    1.8255   -1.7167 N   0  0  0  0  0  0  0  0  0  0  0  0
    1.7702    2.6761   -2.6018 O   0  0  0  0  0  0  0  0  0  0  0  0
    2.7942    1.2612   -1.2975 O   0  0  0  0  0  0  0  0  0  0  0  0
    0.5170    0.3797   -0.1220 C   0  0  0  0  0  0  0  0  0  0  0  0
   -0.6699   -0.0938    0.3332 C   0  0  0  0  0  0  0  0  0  0  0  0
   -2.7662    1.8605   -1.5533 H   0  0  0  0  0  0  0  0  0  0  0  0
   -0.5587    2.8582   -2.2605 H   0  0  0  0  0  0  0  0  0  0  0  0
    1.4646   -0.0404    0.1818 H   0  0  0  0  0  0  0  0  0  0  0  0
   -0.7170   -0.9350    1.0170 H   0  0  0  0  0  0  0  0  0  0  0  0
   -4.4059    2.6592   -0.0142 O   0  0  0  0  0  0  0  0  0  0  0  0
   -3.4265    3.2531    0.3693 C   0  0  0  0  0  0  0  0  0  0  0  0
   -2.1543    2.9640    0.0979 O   0  0  0  0  0  0  0  0  0  0  0  0
   -3.4987    4.4995    1.2819 C   0  0  0  0  0  0  0  0  0  0  0  0
   -2.9420    5.5579    0.6690 F   0  0  0  0  0  0  0  0  0  0  0  0
   -4.7687    4.7881    1.5713 F   0  0  0  0  0  0  0  0  0  0  0  0
   -2.8335    4.2728    2.4279 F   0  0  0  0  0  0  0  0  0  0  0  0
  1  2  1  0  0  0  0
  1 11  2  0  0  0  0
  2  3  1  0  0  0  0
  4 12  1  6  0  0  0
  4  1  1  0  0  0  0
  4 18  1  0  0  0  0
  5  6  2  0  0  0  0
  5  4  1  0  0  0  0
  6 10  1  0  0  0  0
  7  9  2  0  0  0  0
  7  6  1  0  0  0  0
  8  7  2  0  0  0  0
 10 14  1  0  0  0  0
 10 11  1  0  0  0  0
 11 15  1  0  0  0  0
 13  5  1  0  0  0  0
 16 17  2  0  0  0  0
 17 19  1  0  0  0  0
 18 17  1  0  0  0  0
 19 21  1  0  0  0  0
 19 22  1  0  0  0  0
 20 19  1  0  0  0  0
M  RAD  3   2   2   3   3  10   2
M  END
