Coordinates from ORCA-job 4-NO2PhN2+~CF3COO-_B3LYPG-6-31G_dp-NX-Scan-d89-09-n800
 OpenBabel11261920383D

 22 22  0  0  1  0  0  0  0  0999 V2000
   -1.8252    0.2586    0.0682 C   0  0  0  0  0  0  0  0  0  0  0  0
   -2.8737   -0.4216    0.4854 N   0  0  0  0  0  0  0  0  0  0  0  0
   -3.7847   -1.0060    0.8389 N   0  0  0  0  0  0  0  0  0  0  0  0
   -2.0801    1.5546   -0.6336 C   0  0  2  0  0  0  0  0  0  0  0  0
   -0.8682    2.0118   -1.3779 C   0  0  0  0  0  0  0  0  0  0  0  0
    0.3421    1.4854   -1.1021 C   0  0  0  0  0  0  0  0  0  0  0  0
    1.5191    2.0388   -1.8172 N   0  0  0  0  0  0  0  0  0  0  0  0
    1.3285    2.9314   -2.6381 O   0  0  0  0  0  0  0  0  0  0  0  0
    2.6163    1.5633   -1.5329 O   0  0  0  0  0  0  0  0  0  0  0  0
    0.5752    0.3951   -0.1881 C   0  0  0  0  0  0  0  0  0  0  0  0
   -0.5000   -0.2158    0.3683 C   0  0  0  0  0  0  0  0  0  0  0  0
   -2.9601    1.5276   -1.2796 H   0  0  0  0  0  0  0  0  0  0  0  0
   -0.9764    2.8087   -2.1027 H   0  0  0  0  0  0  0  0  0  0  0  0
    1.5882    0.0709    0.0015 H   0  0  0  0  0  0  0  0  0  0  0  0
   -0.3864   -1.0727    1.0239 H   0  0  0  0  0  0  0  0  0  0  0  0
   -3.5287    3.8360   -1.1089 O   0  0  0  0  0  0  0  0  0  0  0  0
   -3.1391    3.6182    0.0122 C   0  0  0  0  0  0  0  0  0  0  0  0
   -2.4103    2.5785    0.4242 O   0  0  0  0  0  0  0  0  0  0  0  0
   -3.4493    4.5449    1.2112 C   0  0  0  0  0  0  0  0  0  0  0  0
   -2.3101    4.9723    1.7803 F   0  0  0  0  0  0  0  0  0  0  0  0
   -4.1544    5.6028    0.8084 F   0  0  0  0  0  0  0  0  0  0  0  0
   -4.1619    3.8765    2.1370 F   0  0  0  0  0  0  0  0  0  0  0  0
  1 11  2  0  0  0  0
  1  2  1  0  0  0  0
  2  3  1  0  0  0  0
  4 12  1  6  0  0  0
  4  1  1  0  0  0  0
  4 18  1  0  0  0  0
  5  6  2  0  0  0  0
  5  4  1  0  0  0  0
  6 10  1  0  0  0  0
  7  9  2  0  0  0  0
  7  6  1  0  0  0  0
  8  7  2  0  0  0  0
 10 14  1  0  0  0  0
 10 11  1  0  0  0  0
 11 15  1  0  0  0  0
 13  5  1  0  0  0  0
 16 17  2  0  0  0  0
 17 18  1  0  0  0  0
 17 19  1  0  0  0  0
 19 20  1  0  0  0  0
 19 22  1  0  0  0  0
 21 19  1  0  0  0  0
M  RAD  3   2   2   3   3  10   2
M  END
