Coordinates from ORCA-job 4-NO2PhN2+~CF3COO-_B3LYPG-6-31G_dp-NX-Scan-d89-09-n800
 OpenBabel11261920383D

 22 22  0  0  1  0  0  0  0  0999 V2000
   -1.8890    0.1819    0.0745 C   0  0  1  0  0  0  0  0  0  0  0  0
   -2.8175   -0.6981    0.4066 N   0  0  0  0  0  0  0  0  0  0  0  0
   -3.5426   -1.5225    0.7171 N   0  0  0  0  0  0  0  0  0  0  0  0
   -2.2369    1.4327   -0.6800 C   0  0  2  0  0  0  0  0  0  0  0  0
   -1.0541    1.9070   -1.4660 C   0  0  0  0  0  0  0  0  0  0  0  0
    0.1915    1.5468   -1.0960 C   0  0  0  0  0  0  0  0  0  0  0  0
    1.3346    2.1226   -1.8459 N   0  0  0  0  0  0  0  0  0  0  0  0
    1.0898    2.8502   -2.8033 O   0  0  0  0  0  0  0  0  0  0  0  0
    2.4615    1.8328   -1.4482 O   0  0  0  0  0  0  0  0  0  0  0  0
    0.4942    0.5988   -0.0535 C   0  0  0  0  0  0  0  0  0  0  0  0
   -0.5340   -0.0942    0.4924 C   0  0  0  0  0  0  0  0  0  0  0  0
   -3.1207    1.3139   -1.3108 H   0  0  0  0  0  0  0  0  0  0  0  0
   -1.2121    2.5996   -2.2810 H   0  0  0  0  0  0  0  0  0  0  0  0
    1.5237    0.4250    0.2250 H   0  0  0  0  0  0  0  0  0  0  0  0
   -0.3623   -0.8778    1.2232 H   0  0  0  0  0  0  0  0  0  0  0  0
   -2.8188    4.2205   -1.1315 O   0  0  0  0  0  0  0  0  0  0  0  0
   -2.8754    3.7291   -0.0297 C   0  0  0  0  0  0  0  0  0  0  0  0
   -2.6316    2.4697    0.3494 O   0  0  0  0  0  0  0  0  0  0  0  0
   -3.2705    4.5493    1.2241 C   0  0  0  0  0  0  0  0  0  0  0  0
   -2.2761    4.5296    2.1288 F   0  0  0  0  0  0  0  0  0  0  0  0
   -3.5213    5.8155    0.8887 F   0  0  0  0  0  0  0  0  0  0  0  0
   -4.3718    4.0269    1.7944 F   0  0  0  0  0  0  0  0  0  0  0  0
  1  2  1  1  0  0  0
  1 11  1  0  0  0  0
  2  3  1  0  0  0  0
  4 12  1  6  0  0  0
  4  1  1  0  0  0  0
  4 18  1  0  0  0  0
  5  6  2  0  0  0  0
  5  4  1  0  0  0  0
  6 10  1  0  0  0  0
  7  9  2  0  0  0  0
  7  6  1  0  0  0  0
  8  7  2  0  0  0  0
 10 14  1  0  0  0  0
 10 11  2  0  0  0  0
 11 15  1  0  0  0  0
 13  5  1  0  0  0  0
 16 17  2  0  0  0  0
 17 18  1  0  0  0  0
 17 19  1  0  0  0  0
 19 22  1  0  0  0  0
 19 20  1  0  0  0  0
 21 19  1  0  0  0  0
M  RAD  3   1   2   2   2   3   3
M  END
