Coordinates from ORCA-job 4-NO2PhN2+~CF3COO-_B3LYPG-6-31G_dp-NX-Scan-d89-09-n800
 OpenBabel11261920383D

 22 22  0  0  1  0  0  0  0  0999 V2000
   -1.8962    0.4976   -0.1130 C   0  0  0  0  0  0  0  0  0  0  0  0
   -3.0421   -0.0955    0.1642 N   0  0  0  0  0  0  0  0  0  0  0  0
   -4.0252   -0.6137    0.4044 N   0  0  0  0  0  0  0  0  0  0  0  0
   -1.9349    1.8036   -0.8451 C   0  0  2  0  0  0  0  0  0  0  0  0
   -0.6218    2.0889   -1.4946 C   0  0  0  0  0  0  0  0  0  0  0  0
    0.4925    1.4447   -1.0914 C   0  0  0  0  0  0  0  0  0  0  0  0
    1.7810    1.8302   -1.7178 N   0  0  0  0  0  0  0  0  0  0  0  0
    1.7618    2.6865   -2.5974 O   0  0  0  0  0  0  0  0  0  0  0  0
    2.7921    1.2708   -1.2988 O   0  0  0  0  0  0  0  0  0  0  0  0
    0.5191    0.3774   -0.1239 C   0  0  0  0  0  0  0  0  0  0  0  0
   -0.6653   -0.1003    0.3331 C   0  0  0  0  0  0  0  0  0  0  0  0
   -2.7713    1.8536   -1.5439 H   0  0  0  0  0  0  0  0  0  0  0  0
   -0.5677    2.8581   -2.2543 H   0  0  0  0  0  0  0  0  0  0  0  0
    1.4686   -0.0408    0.1769 H   0  0  0  0  0  0  0  0  0  0  0  0
   -0.7087   -0.9429    1.0154 H   0  0  0  0  0  0  0  0  0  0  0  0
   -4.4128    2.6955   -0.0531 O   0  0  0  0  0  0  0  0  0  0  0  0
   -3.4295    3.2642    0.3574 C   0  0  0  0  0  0  0  0  0  0  0  0
   -2.1574    2.9516    0.1105 O   0  0  0  0  0  0  0  0  0  0  0  0
   -3.4949    4.5037    1.2800 C   0  0  0  0  0  0  0  0  0  0  0  0
   -2.9230    5.5606    0.6783 F   0  0  0  0  0  0  0  0  0  0  0  0
   -4.7638    4.8036    1.5626 F   0  0  0  0  0  0  0  0  0  0  0  0
   -2.8400    4.2621    2.4287 F   0  0  0  0  0  0  0  0  0  0  0  0
  1  2  1  0  0  0  0
  1 11  2  0  0  0  0
  2  3  1  0  0  0  0
  4 12  1  6  0  0  0
  4  1  1  0  0  0  0
  4 18  1  0  0  0  0
  5  6  2  0  0  0  0
  5  4  1  0  0  0  0
  6 10  1  0  0  0  0
  7  9  2  0  0  0  0
  7  6  1  0  0  0  0
  8  7  2  0  0  0  0
 10 14  1  0  0  0  0
 10 11  1  0  0  0  0
 11 15  1  0  0  0  0
 13  5  1  0  0  0  0
 16 17  2  0  0  0  0
 17 19  1  0  0  0  0
 18 17  1  0  0  0  0
 19 21  1  0  0  0  0
 19 22  1  0  0  0  0
 20 19  1  0  0  0  0
M  RAD  3   2   2   3   3  10   2
M  END
