Coordinates from ORCA-job 4-NO2PhN2+~CF3COO-_B3LYPG-6-31G_dp-NX-Scan-d89-09-n800
 OpenBabel11261920383D

 22 21  0  0  0  0  0  0  0  0999 V2000
   -1.7916   -0.2107    0.2956 C   0  0  0  0  0  0  0  0  0  0  0  0
   -2.6133   -1.1969    0.7565 N   0  0  0  0  0  0  0  0  0  0  0  0
   -3.2128   -2.0664    1.1471 N   0  0  0  0  0  0  0  0  0  0  0  0
   -2.2651    0.7304   -0.6499 C   0  0  0  0  0  0  0  0  0  0  0  0
   -1.3334    1.6157   -1.1862 C   0  0  0  0  0  0  0  0  0  0  0  0
   -0.0222    1.5811   -0.7287 C   0  0  0  0  0  0  0  0  0  0  0  0
    0.9564    2.5190   -1.3114 N   0  0  0  0  0  0  0  0  0  0  0  0
    0.5837    3.2065   -2.2537 O   0  0  0  0  0  0  0  0  0  0  0  0
    2.0822    2.5259   -0.8140 O   0  0  0  0  0  0  0  0  0  0  0  0
    0.4264    0.6950    0.2662 C   0  0  0  0  0  0  0  0  0  0  0  0
   -0.4522   -0.2262    0.7850 C   0  0  0  0  0  0  0  0  0  0  0  0
   -3.3001    0.7832   -0.9630 H   0  0  0  0  0  0  0  0  0  0  0  0
   -1.6630    2.3504   -1.9075 H   0  0  0  0  0  0  0  0  0  0  0  0
    1.4551    0.7488    0.5988 H   0  0  0  0  0  0  0  0  0  0  0  0
   -0.1511   -0.9447    1.5384 H   0  0  0  0  0  0  0  0  0  0  0  0
   -3.9593    5.3753   -1.2332 O   0  0  0  0  0  0  0  0  0  0  0  0
   -3.4758    4.3413   -0.7653 C   0  0  0  0  0  0  0  0  0  0  0  0
   -3.6201    3.1422   -1.1678 O   0  0  0  0  0  0  0  0  0  0  0  0
   -2.5183    4.4797    0.4570 C   0  0  0  0  0  0  0  0  0  0  0  0
   -2.7296    3.5090    1.3844 F   0  0  0  0  0  0  0  0  0  0  0  0
   -1.2184    4.3396    0.0537 F   0  0  0  0  0  0  0  0  0  0  0  0
   -2.6171    5.6611    1.0764 F   0  0  0  0  0  0  0  0  0  0  0  0
  1  2  1  0  0  0  0
  1 11  1  0  0  0  0
  2  3  1  0  0  0  0
  4  1  2  0  0  0  0
  5  6  2  0  0  0  0
  5  4  1  0  0  0  0
  6 10  1  0  0  0  0
  7  9  2  0  0  0  0
  7  6  1  0  0  0  0
  8  7  2  0  0  0  0
 10 14  1  0  0  0  0
 10 11  2  0  0  0  0
 11 15  1  0  0  0  0
 12  4  1  0  0  0  0
 13  5  1  0  0  0  0
 16 17  2  0  0  0  0
 17 19  1  0  0  0  0
 18 17  1  0  0  0  0
 19 22  1  0  0  0  0
 19 20  1  0  0  0  0
 21 19  1  0  0  0  0
M  RAD  3   2   2   3   3  18   2
M  END
