Coordinates from ORCA-job 4-NO2PhN2+~CF3COO-_B3LYPG-6-31G_dp-NX-Scan-d89-09-n800
 OpenBabel11261920383D

 22 21  0  0  0  0  0  0  0  0999 V2000
   -1.8161   -0.1453    0.2955 C   0  0  0  0  0  0  0  0  0  0  0  0
   -2.6512   -1.1110    0.7724 N   0  0  0  0  0  0  0  0  0  0  0  0
   -3.2663   -1.9641    1.1745 N   0  0  0  0  0  0  0  0  0  0  0  0
   -2.2663    0.7505   -0.7035 C   0  0  0  0  0  0  0  0  0  0  0  0
   -1.3204    1.6125   -1.2556 C   0  0  0  0  0  0  0  0  0  0  0  0
   -0.0230    1.6010   -0.7630 C   0  0  0  0  0  0  0  0  0  0  0  0
    0.9674    2.5181   -1.3579 N   0  0  0  0  0  0  0  0  0  0  0  0
    0.6120    3.1785   -2.3263 O   0  0  0  0  0  0  0  0  0  0  0  0
    2.0852    2.5375   -0.8436 O   0  0  0  0  0  0  0  0  0  0  0  0
    0.4008    0.7610    0.2831 C   0  0  0  0  0  0  0  0  0  0  0  0
   -0.4900   -0.1353    0.8216 C   0  0  0  0  0  0  0  0  0  0  0  0
   -3.2916    0.7785   -1.0476 H   0  0  0  0  0  0  0  0  0  0  0  0
   -1.6256    2.3131   -2.0195 H   0  0  0  0  0  0  0  0  0  0  0  0
    1.4204    0.8325    0.6393 H   0  0  0  0  0  0  0  0  0  0  0  0
   -0.2096   -0.8163    1.6166 H   0  0  0  0  0  0  0  0  0  0  0  0
   -3.9246    5.3303   -1.1646 O   0  0  0  0  0  0  0  0  0  0  0  0
   -3.4530    4.2794   -0.7248 C   0  0  0  0  0  0  0  0  0  0  0  0
   -3.6093    3.0927   -1.1606 O   0  0  0  0  0  0  0  0  0  0  0  0
   -2.4931    4.3771    0.5000 C   0  0  0  0  0  0  0  0  0  0  0  0
   -2.6705    3.3523    1.3762 F   0  0  0  0  0  0  0  0  0  0  0  0
   -1.1929    4.2961    0.0834 F   0  0  0  0  0  0  0  0  0  0  0  0
   -2.6218    5.5199    1.1827 F   0  0  0  0  0  0  0  0  0  0  0  0
  1  2  1  0  0  0  0
  1 11  1  0  0  0  0
  2  3  1  0  0  0  0
  4  1  2  0  0  0  0
  5  6  2  0  0  0  0
  5  4  1  0  0  0  0
  6 10  1  0  0  0  0
  7  9  2  0  0  0  0
  7  6  1  0  0  0  0
  8  7  2  0  0  0  0
 10 14  1  0  0  0  0
 10 11  2  0  0  0  0
 11 15  1  0  0  0  0
 12  4  1  0  0  0  0
 13  5  1  0  0  0  0
 16 17  2  0  0  0  0
 17 19  1  0  0  0  0
 18 17  1  0  0  0  0
 19 22  1  0  0  0  0
 19 20  1  0  0  0  0
 21 19  1  0  0  0  0
M  RAD  3   2   2   3   3  18   2
M  END
