Coordinates from ORCA-job 4-NO2PhN2+~CF3COO-_B3LYPG-6-31G_dp-NX-Scan-d89-09-n800
 OpenBabel11261920383D

 22 21  0  0  0  0  0  0  0  0999 V2000
   -1.8878    0.1875    0.2804 C   0  0  0  0  0  0  0  0  0  0  0  0
   -2.7744   -0.6680    0.8466 N   0  0  0  0  0  0  0  0  0  0  0  0
   -3.4451   -1.4372    1.3238 N   0  0  0  0  0  0  0  0  0  0  0  0
   -2.2358    0.8531   -0.9192 C   0  0  0  0  0  0  0  0  0  0  0  0
   -1.2141    1.5643   -1.5676 C   0  0  0  0  0  0  0  0  0  0  0  0
    0.0285    1.6483   -0.9765 C   0  0  0  0  0  0  0  0  0  0  0  0
    1.0904    2.4029   -1.6707 N   0  0  0  0  0  0  0  0  0  0  0  0
    0.8239    2.8705   -2.7726 O   0  0  0  0  0  0  0  0  0  0  0  0
    2.1760    2.4890   -1.0995 O   0  0  0  0  0  0  0  0  0  0  0  0
    0.3418    1.0612    0.2715 C   0  0  0  0  0  0  0  0  0  0  0  0
   -0.6123    0.3204    0.9140 C   0  0  0  0  0  0  0  0  0  0  0  0
   -3.2021    0.7172   -1.3798 H   0  0  0  0  0  0  0  0  0  0  0  0
   -1.4183    2.0730   -2.4990 H   0  0  0  0  0  0  0  0  0  0  0  0
    1.3289    1.2064    0.6904 H   0  0  0  0  0  0  0  0  0  0  0  0
   -0.4225   -0.1599    1.8661 H   0  0  0  0  0  0  0  0  0  0  0  0
   -3.6429    5.1770   -0.9213 O   0  0  0  0  0  0  0  0  0  0  0  0
   -3.3144    4.0566   -0.5352 C   0  0  0  0  0  0  0  0  0  0  0  0
   -3.4652    2.9373   -1.1360 O   0  0  0  0  0  0  0  0  0  0  0  0
   -2.5890    3.9538    0.8401 C   0  0  0  0  0  0  0  0  0  0  0  0
   -2.9286    2.8214    1.5217 F   0  0  0  0  0  0  0  0  0  0  0  0
   -1.2387    3.8922    0.6576 F   0  0  0  0  0  0  0  0  0  0  0  0
   -2.8379    4.9923    1.6435 F   0  0  0  0  0  0  0  0  0  0  0  0
  1  2  1  0  0  0  0
  1 11  1  0  0  0  0
  2  3  1  0  0  0  0
  4  1  2  0  0  0  0
  5  6  2  0  0  0  0
  5  4  1  0  0  0  0
  6 10  1  0  0  0  0
  7  9  2  0  0  0  0
  7  6  1  0  0  0  0
  8  7  2  0  0  0  0
 10 14  1  0  0  0  0
 10 11  2  0  0  0  0
 11 15  1  0  0  0  0
 12  4  1  0  0  0  0
 13  5  1  0  0  0  0
 16 17  1  0  0  0  0
 17 19  1  0  0  0  0
 18 17  2  0  0  0  0
 19 20  1  0  0  0  0
 19 22  1  0  0  0  0
 21 19  1  0  0  0  0
M  RAD  3   2   2   3   3  16   2
M  END
