Coordinates from ORCA-job 4-NO2PhN2+~CF3COO-_B3LYPG-6-31G_dp-NX-Scan-d89-09-n800
 OpenBabel11261920383D

 22 21  0  0  0  0  0  0  0  0999 V2000
   -1.8656    0.3773    0.2830 C   0  0  0  0  0  0  0  0  0  0  0  0
   -2.7975   -0.3710    0.9161 N   0  0  0  0  0  0  0  0  0  0  0  0
   -3.5243   -1.0461    1.4491 N   0  0  0  0  0  0  0  0  0  0  0  0
   -2.1893    0.9621   -0.9669 C   0  0  0  0  0  0  0  0  0  0  0  0
   -1.1255    1.5586   -1.6750 C   0  0  0  0  0  0  0  0  0  0  0  0
    0.1164    1.6303   -1.0900 C   0  0  0  0  0  0  0  0  0  0  0  0
    1.2151    2.2697   -1.8453 N   0  0  0  0  0  0  0  0  0  0  0  0
    0.9684    2.6636   -2.9801 O   0  0  0  0  0  0  0  0  0  0  0  0
    2.3045    2.3492   -1.2813 O   0  0  0  0  0  0  0  0  0  0  0  0
    0.4082    1.1270    0.2024 C   0  0  0  0  0  0  0  0  0  0  0  0
   -0.5812    0.4958    0.9024 C   0  0  0  0  0  0  0  0  0  0  0  0
   -3.1386    0.7681   -1.4401 H   0  0  0  0  0  0  0  0  0  0  0  0
   -1.3008    1.9883   -2.6512 H   0  0  0  0  0  0  0  0  0  0  0  0
    1.4042    1.2518    0.6060 H   0  0  0  0  0  0  0  0  0  0  0  0
   -0.4139    0.0873    1.8915 H   0  0  0  0  0  0  0  0  0  0  0  0
   -3.5352    5.1601   -0.7882 O   0  0  0  0  0  0  0  0  0  0  0  0
   -3.2809    4.0086   -0.4491 C   0  0  0  0  0  0  0  0  0  0  0  0
   -3.3357    2.9444   -1.1632 O   0  0  0  0  0  0  0  0  0  0  0  0
   -2.8167    3.7627    1.0158 C   0  0  0  0  0  0  0  0  0  0  0  0
   -3.4096    2.6576    1.5578 F   0  0  0  0  0  0  0  0  0  0  0  0
   -1.4748    3.5235    1.0546 F   0  0  0  0  0  0  0  0  0  0  0  0
   -3.0666    4.7902    1.8300 F   0  0  0  0  0  0  0  0  0  0  0  0
  1 11  1  0  0  0  0
  1  2  1  0  0  0  0
  2  3  1  0  0  0  0
  4  1  2  0  0  0  0
  5  6  2  0  0  0  0
  5  4  1  0  0  0  0
  6 10  1  0  0  0  0
  7  9  2  0  0  0  0
  7  6  1  0  0  0  0
  8  7  2  0  0  0  0
 10 14  1  0  0  0  0
 10 11  2  0  0  0  0
 11 15  1  0  0  0  0
 12  4  1  0  0  0  0
 13  5  1  0  0  0  0
 16 17  1  0  0  0  0
 17 19  1  0  0  0  0
 18 17  2  0  0  0  0
 19 21  1  0  0  0  0
 19 20  1  0  0  0  0
 19 22  1  0  0  0  0
M  RAD  3   2   2   3   3  16   2
M  END
