Coordinates from ORCA-job 4-NO2PhN2+~CF3COO-_B3LYPG-6-31G_dp-NX-Scan-d89-09-n800
 OpenBabel11261920383D

 22 22  0  0  1  0  0  0  0  0999 V2000
   -1.8343    0.3374    0.0133 C   0  0  0  0  0  0  0  0  0  0  0  0
   -2.9246   -0.2943    0.3978 N   0  0  0  0  0  0  0  0  0  0  0  0
   -3.8771   -0.8273    0.7221 N   0  0  0  0  0  0  0  0  0  0  0  0
   -2.0140    1.6404   -0.7005 C   0  0  2  0  0  0  0  0  0  0  0  0
   -0.7644    2.0373   -1.4145 C   0  0  0  0  0  0  0  0  0  0  0  0
    0.4147    1.4627   -1.1011 C   0  0  0  0  0  0  0  0  0  0  0  0
    1.6327    1.9590   -1.7879 N   0  0  0  0  0  0  0  0  0  0  0  0
    1.5013    2.8445   -2.6280 O   0  0  0  0  0  0  0  0  0  0  0  0
    2.7020    1.4477   -1.4624 O   0  0  0  0  0  0  0  0  0  0  0  0
    0.5753    0.3725   -0.1717 C   0  0  0  0  0  0  0  0  0  0  0  0
   -0.5403   -0.1893    0.3567 C   0  0  0  0  0  0  0  0  0  0  0  0
   -2.8840    1.6499   -1.3591 H   0  0  0  0  0  0  0  0  0  0  0  0
   -0.8126    2.8295   -2.1512 H   0  0  0  0  0  0  0  0  0  0  0  0
    1.5681    0.0090    0.0503 H   0  0  0  0  0  0  0  0  0  0  0  0
   -0.4815   -1.0443    1.0220 H   0  0  0  0  0  0  0  0  0  0  0  0
   -4.0578    3.5090   -0.8752 O   0  0  0  0  0  0  0  0  0  0  0  0
   -3.3251    3.5191    0.0830 C   0  0  0  0  0  0  0  0  0  0  0  0
   -2.2963    2.7035    0.3303 O   0  0  0  0  0  0  0  0  0  0  0  0
   -3.4745    4.5251    1.2487 C   0  0  0  0  0  0  0  0  0  0  0  0
   -2.3482    5.2430    1.3918 F   0  0  0  0  0  0  0  0  0  0  0  0
   -4.4901    5.3573    1.0152 F   0  0  0  0  0  0  0  0  0  0  0  0
   -3.7087    3.8674    2.3988 F   0  0  0  0  0  0  0  0  0  0  0  0
  1 11  2  0  0  0  0
  1  2  1  0  0  0  0
  2  3  1  0  0  0  0
  4 12  1  6  0  0  0
  4  1  1  0  0  0  0
  4 18  1  0  0  0  0
  5  6  2  0  0  0  0
  5  4  1  0  0  0  0
  6 10  1  0  0  0  0
  7  9  2  0  0  0  0
  7  6  1  0  0  0  0
  8  7  2  0  0  0  0
 10 14  1  0  0  0  0
 10 11  1  0  0  0  0
 11 15  1  0  0  0  0
 13  5  1  0  0  0  0
 16 17  2  0  0  0  0
 17 18  1  0  0  0  0
 17 19  1  0  0  0  0
 19 20  1  0  0  0  0
 19 22  1  0  0  0  0
 21 19  1  0  0  0  0
M  RAD  3   2   2   3   3  10   2
M  END
