Coordinates from ORCA-job 4-NO2PhN2+~CF3COO-_B3LYPG-6-31G_dp-NX-Scan-d89-09-n800
 OpenBabel11261920383D

 22 22  0  0  0  0  0  0  0  0999 V2000
   -1.0159    1.0117    0.4812 C   0  0  0  0  0  0  0  0  0  0  0  0
   -1.7052    0.7817    1.7108 N   0  0  0  0  0  0  0  0  0  0  0  0
   -2.6664    1.4744    2.1197 N   0  0  0  0  0  0  0  0  0  0  0  0
   -0.7441    2.2525   -0.1303 C   0  0  0  0  0  0  0  0  0  0  0  0
    0.0414    2.3009   -1.2773 C   0  0  0  0  0  0  0  0  0  0  0  0
    0.5332    1.1151   -1.8183 C   0  0  0  0  0  0  0  0  0  0  0  0
    1.3483    1.1748   -3.0432 N   0  0  0  0  0  0  0  0  0  0  0  0
    1.5548    2.2828   -3.5359 O   0  0  0  0  0  0  0  0  0  0  0  0
    1.7767    0.1130   -3.4923 O   0  0  0  0  0  0  0  0  0  0  0  0
    0.2852   -0.1242   -1.2310 C   0  0  0  0  0  0  0  0  0  0  0  0
   -0.4725   -0.1635   -0.0684 C   0  0  0  0  0  0  0  0  0  0  0  0
   -1.1323    3.1751    0.2771 H   0  0  0  0  0  0  0  0  0  0  0  0
    0.2705    3.2408   -1.7634 H   0  0  0  0  0  0  0  0  0  0  0  0
    0.6973   -1.0203   -1.6766 H   0  0  0  0  0  0  0  0  0  0  0  0
   -0.6625   -1.1020    0.4408 H   0  0  0  0  0  0  0  0  0  0  0  0
   -3.0363    2.3805    1.3907 O   0  0  0  0  0  0  0  0  0  0  0  0
   -4.1111    3.1494    1.8581 C   0  0  0  0  0  0  0  0  0  0  0  0
   -4.7006    2.9909    2.8759 O   0  0  0  0  0  0  0  0  0  0  0  0
   -4.3735    4.2406    0.8015 C   0  0  0  0  0  0  0  0  0  0  0  0
   -4.7573    3.6788   -0.3537 F   0  0  0  0  0  0  0  0  0  0  0  0
   -5.3240    5.0644    1.2306 F   0  0  0  0  0  0  0  0  0  0  0  0
   -3.2451    4.9421    0.5824 F   0  0  0  0  0  0  0  0  0  0  0  0
  1  2  1  0  0  0  0
  2  3  2  0  0  0  0
  4 12  1  0  0  0  0
  4  1  2  0  0  0  0
  5  4  1  0  0  0  0
  6  5  2  0  0  0  0
  6 10  1  0  0  0  0
  7  6  1  0  0  0  0
  8  7  2  0  0  0  0
  9  7  2  0  0  0  0
 10 11  2  0  0  0  0
 11 15  1  0  0  0  0
 11  1  1  0  0  0  0
 13  5  1  0  0  0  0
 14 10  1  0  0  0  0
 16 17  1  0  0  0  0
 16  3  1  0  0  0  0
 17 18  2  0  0  0  0
 19 21  1  0  0  0  0
 19 17  1  0  0  0  0
 20 19  1  0  0  0  0
 22 19  1  0  0  0  0
M  END
