Coordinates from ORCA-job 4-NO2PhN2+~CF3COO-_B3LYPG-6-31G_dp-NX-Scan-d89-09-n800
 OpenBabel11261920383D

 22 22  0  0  0  0  0  0  0  0999 V2000
   -1.0282    0.9560    0.4222 C   0  0  0  0  0  0  0  0  0  0  0  0
   -1.7607    0.7179    1.6174 N   0  0  0  0  0  0  0  0  0  0  0  0
   -2.6915    1.3416    2.1048 N   0  0  0  0  0  0  0  0  0  0  0  0
   -0.8176    2.1958   -0.2134 C   0  0  0  0  0  0  0  0  0  0  0  0
    0.0008    2.2539   -1.3365 C   0  0  0  0  0  0  0  0  0  0  0  0
    0.5792    1.0834   -1.8230 C   0  0  0  0  0  0  0  0  0  0  0  0
    1.4313    1.1568   -3.0260 N   0  0  0  0  0  0  0  0  0  0  0  0
    1.5901    2.2610   -3.5414 O   0  0  0  0  0  0  0  0  0  0  0  0
    1.9253    0.1076   -3.4332 O   0  0  0  0  0  0  0  0  0  0  0  0
    0.3886   -0.1520   -1.2089 C   0  0  0  0  0  0  0  0  0  0  0  0
   -0.4021   -0.2032   -0.0683 C   0  0  0  0  0  0  0  0  0  0  0  0
   -1.2803    3.0982    0.1564 H   0  0  0  0  0  0  0  0  0  0  0  0
    0.1887    3.1906   -1.8458 H   0  0  0  0  0  0  0  0  0  0  0  0
    0.8668   -1.0337   -1.6151 H   0  0  0  0  0  0  0  0  0  0  0  0
   -0.5546   -1.1358    0.4632 H   0  0  0  0  0  0  0  0  0  0  0  0
   -3.1017    2.4668    1.3041 O   0  0  0  0  0  0  0  0  0  0  0  0
   -4.1079    3.1942    1.8610 C   0  0  0  0  0  0  0  0  0  0  0  0
   -4.6670    3.0137    2.9011 O   0  0  0  0  0  0  0  0  0  0  0  0
   -4.4325    4.3534    0.8876 C   0  0  0  0  0  0  0  0  0  0  0  0
   -4.9676    3.8686   -0.2453 F   0  0  0  0  0  0  0  0  0  0  0  0
   -5.2928    5.1997    1.4487 F   0  0  0  0  0  0  0  0  0  0  0  0
   -3.3060    5.0245    0.5687 F   0  0  0  0  0  0  0  0  0  0  0  0
  1  2  1  0  0  0  0
  2  3  1  0  0  0  0
  4 12  1  0  0  0  0
  4  1  2  0  0  0  0
  5  4  1  0  0  0  0
  6  5  2  0  0  0  0
  6 10  1  0  0  0  0
  7  6  1  0  0  0  0
  8  7  2  0  0  0  0
  9  7  2  0  0  0  0
 10 11  2  0  0  0  0
 11  1  1  0  0  0  0
 11 15  1  0  0  0  0
 13  5  1  0  0  0  0
 14 10  1  0  0  0  0
 16 17  1  0  0  0  0
 16  3  1  0  0  0  0
 17 18  2  0  0  0  0
 19 21  1  0  0  0  0
 19 17  1  0  0  0  0
 20 19  1  0  0  0  0
 22 19  1  0  0  0  0
M  RAD  2   2   2   3   2
M  END
