Coordinates from ORCA-job 4-NO2PhN2+~CF3COO-_B3LYPG-6-31G_dp-NX-Scan-d89-09-n800
 OpenBabel11261920383D

 22 22  0  0  1  0  0  0  0  0999 V2000
   -1.8359    0.4965   -0.1167 C   0  0  0  0  0  0  0  0  0  0  0  0
   -3.0407    0.0834    0.2659 N   0  0  0  0  0  0  0  0  0  0  0  0
   -4.1528    0.1624    0.5058 N   0  0  0  0  0  0  0  0  0  0  0  0
   -1.8447    1.8194   -0.8037 C   0  0  2  0  0  0  0  0  0  0  0  0
   -0.5237    2.1352   -1.3957 C   0  0  0  0  0  0  0  0  0  0  0  0
    0.5643    1.3917   -1.0885 C   0  0  0  0  0  0  0  0  0  0  0  0
    1.8643    1.8003   -1.6801 N   0  0  0  0  0  0  0  0  0  0  0  0
    1.8768    2.7710   -2.4318 O   0  0  0  0  0  0  0  0  0  0  0  0
    2.8506    1.1359   -1.3702 O   0  0  0  0  0  0  0  0  0  0  0  0
    0.5545    0.2126   -0.2694 C   0  0  0  0  0  0  0  0  0  0  0  0
   -0.6477   -0.2326    0.1868 C   0  0  0  0  0  0  0  0  0  0  0  0
   -2.6668    1.9136   -1.5180 H   0  0  0  0  0  0  0  0  0  0  0  0
   -0.4346    2.9878   -2.0564 H   0  0  0  0  0  0  0  0  0  0  0  0
    1.4831   -0.2980   -0.0618 H   0  0  0  0  0  0  0  0  0  0  0  0
   -0.7259   -1.1354    0.7835 H   0  0  0  0  0  0  0  0  0  0  0  0
   -4.3304    2.3234    0.3870 O   0  0  0  0  0  0  0  0  0  0  0  0
   -3.4256    3.1237    0.5366 C   0  0  0  0  0  0  0  0  0  0  0  0
   -2.1590    2.9877    0.1837 O   0  0  0  0  0  0  0  0  0  0  0  0
   -3.6612    4.5064    1.1891 C   0  0  0  0  0  0  0  0  0  0  0  0
   -3.5153    5.4713    0.2630 F   0  0  0  0  0  0  0  0  0  0  0  0
   -4.8936    4.5795    1.6954 F   0  0  0  0  0  0  0  0  0  0  0  0
   -2.7750    4.7233    2.1739 F   0  0  0  0  0  0  0  0  0  0  0  0
  1 11  2  0  0  0  0
  1  2  1  0  0  0  0
  2  3  1  0  0  0  0
  4 12  1  6  0  0  0
  4  1  1  0  0  0  0
  4 18  1  0  0  0  0
  5  6  2  0  0  0  0
  5  4  1  0  0  0  0
  6 10  1  0  0  0  0
  7  9  2  0  0  0  0
  7  6  1  0  0  0  0
  8  7  2  0  0  0  0
 10 14  1  0  0  0  0
 10 11  1  0  0  0  0
 11 15  1  0  0  0  0
 13  5  1  0  0  0  0
 16 17  2  0  0  0  0
 17 19  1  0  0  0  0
 18 17  1  0  0  0  0
 19 21  1  0  0  0  0
 19 22  1  0  0  0  0
 20 19  1  0  0  0  0
M  RAD  3   2   2   3   3  10   2
M  END
