Coordinates from ORCA-job 4-NO2PhN2+~CF3COO-_B3LYPG-6-31G_dp-NX-Scan-d89-09-n800
 OpenBabel11261920383D

 22 21  0  0  0  0  0  0  0  0999 V2000
   -1.8324   -0.1200    0.2924 C   0  0  0  0  0  0  0  0  0  0  0  0
   -2.6674   -1.0839    0.7717 N   0  0  0  0  0  0  0  0  0  0  0  0
   -3.2809   -1.9375    1.1753 N   0  0  0  0  0  0  0  0  0  0  0  0
   -2.2713    0.7514   -0.7326 C   0  0  0  0  0  0  0  0  0  0  0  0
   -1.3203    1.6061   -1.2888 C   0  0  0  0  0  0  0  0  0  0  0  0
   -0.0320    1.6131   -0.7748 C   0  0  0  0  0  0  0  0  0  0  0  0
    0.9627    2.5229   -1.3734 N   0  0  0  0  0  0  0  0  0  0  0  0
    0.6177    3.1643   -2.3584 O   0  0  0  0  0  0  0  0  0  0  0  0
    2.0738    2.5559   -0.8457 O   0  0  0  0  0  0  0  0  0  0  0  0
    0.3790    0.7995    0.2978 C   0  0  0  0  0  0  0  0  0  0  0  0
   -0.5155   -0.0890    0.8416 C   0  0  0  0  0  0  0  0  0  0  0  0
   -3.2897    0.7590   -1.0963 H   0  0  0  0  0  0  0  0  0  0  0  0
   -1.6127    2.2874   -2.0745 H   0  0  0  0  0  0  0  0  0  0  0  0
    1.3920    0.8855    0.6691 H   0  0  0  0  0  0  0  0  0  0  0  0
   -0.2451   -0.7497    1.6568 H   0  0  0  0  0  0  0  0  0  0  0  0
   -3.9043    5.3081   -1.1280 O   0  0  0  0  0  0  0  0  0  0  0  0
   -3.4378    4.2503   -0.7000 C   0  0  0  0  0  0  0  0  0  0  0  0
   -3.6089    3.0679   -1.1428 O   0  0  0  0  0  0  0  0  0  0  0  0
   -2.4639    4.3348    0.5147 C   0  0  0  0  0  0  0  0  0  0  0  0
   -2.6064    3.2841    1.3670 F   0  0  0  0  0  0  0  0  0  0  0  0
   -1.1687    4.2928    0.0781 F   0  0  0  0  0  0  0  0  0  0  0  0
   -2.6073    5.4562    1.2290 F   0  0  0  0  0  0  0  0  0  0  0  0
  1  2  1  0  0  0  0
  1 11  1  0  0  0  0
  2  3  1  0  0  0  0
  4  1  2  0  0  0  0
  5  6  2  0  0  0  0
  5  4  1  0  0  0  0
  6 10  1  0  0  0  0
  7  9  2  0  0  0  0
  7  6  1  0  0  0  0
  8  7  2  0  0  0  0
 10 14  1  0  0  0  0
 10 11  2  0  0  0  0
 11 15  1  0  0  0  0
 12  4  1  0  0  0  0
 13  5  1  0  0  0  0
 16 17  1  0  0  0  0
 17 19  1  0  0  0  0
 18 17  2  0  0  0  0
 19 22  1  0  0  0  0
 19 20  1  0  0  0  0
 21 19  1  0  0  0  0
M  RAD  3   2   2   3   3  16   2
M  END
