Coordinates from ORCA-job 4-NO2PhN2+~CF3COO-_B3LYPG-6-31G_dp-NX-Scan-d89-09-n800
 OpenBabel11261920383D

 22 22  0  0  1  0  0  0  0  0999 V2000
   -1.8407    0.3616   -0.0050 C   0  0  0  0  0  0  0  0  0  0  0  0
   -2.9408   -0.2613    0.3661 N   0  0  0  0  0  0  0  0  0  0  0  0
   -3.8996   -0.7891    0.6804 N   0  0  0  0  0  0  0  0  0  0  0  0
   -1.9981    1.6662   -0.7224 C   0  0  2  0  0  0  0  0  0  0  0  0
   -0.7374    2.0452   -1.4264 C   0  0  0  0  0  0  0  0  0  0  0  0
    0.4318    1.4576   -1.1001 C   0  0  0  0  0  0  0  0  0  0  0  0
    1.6617    1.9360   -1.7782 N   0  0  0  0  0  0  0  0  0  0  0  0
    1.5481    2.8173   -2.6254 O   0  0  0  0  0  0  0  0  0  0  0  0
    2.7221    1.4153   -1.4390 O   0  0  0  0  0  0  0  0  0  0  0  0
    0.5711    0.3696   -0.1648 C   0  0  0  0  0  0  0  0  0  0  0  0
   -0.5560   -0.1780    0.3539 C   0  0  0  0  0  0  0  0  0  0  0  0
   -2.8643    1.6835   -1.3859 H   0  0  0  0  0  0  0  0  0  0  0  0
   -0.7684    2.8351   -2.1664 H   0  0  0  0  0  0  0  0  0  0  0  0
    1.5575   -0.0038    0.0688 H   0  0  0  0  0  0  0  0  0  0  0  0
   -0.5137   -1.0312    1.0227 H   0  0  0  0  0  0  0  0  0  0  0  0
   -4.1720    3.4003   -0.7784 O   0  0  0  0  0  0  0  0  0  0  0  0
   -3.3643    3.4859    0.1137 C   0  0  0  0  0  0  0  0  0  0  0  0
   -2.2696    2.7422    0.2979 O   0  0  0  0  0  0  0  0  0  0  0  0
   -3.4792    4.5214    1.2573 C   0  0  0  0  0  0  0  0  0  0  0  0
   -2.4001    5.3218    1.2704 F   0  0  0  0  0  0  0  0  0  0  0  0
   -4.5704    5.2709    1.0955 F   0  0  0  0  0  0  0  0  0  0  0  0
   -3.5570    3.8927    2.4438 F   0  0  0  0  0  0  0  0  0  0  0  0
  1 11  2  0  0  0  0
  1  2  1  0  0  0  0
  2  3  1  0  0  0  0
  4 12  1  6  0  0  0
  4  1  1  0  0  0  0
  4 18  1  0  0  0  0
  5  6  2  0  0  0  0
  5  4  1  0  0  0  0
  6 10  1  0  0  0  0
  7  9  2  0  0  0  0
  7  6  1  0  0  0  0
  8  7  2  0  0  0  0
 10 14  1  0  0  0  0
 10 11  1  0  0  0  0
 11 15  1  0  0  0  0
 13  5  1  0  0  0  0
 16 17  2  0  0  0  0
 17 18  1  0  0  0  0
 17 19  1  0  0  0  0
 19 20  1  0  0  0  0
 19 22  1  0  0  0  0
 21 19  1  0  0  0  0
M  RAD  3   2   2   3   3  10   2
M  END
