Coordinates from ORCA-job 4-NO2PhN2+~CF3COO-_B3LYPG-6-31G_dp-NX-Scan-d89-09-n800
 OpenBabel11261920383D

 22 22  0  0  1  0  0  0  0  0999 V2000
   -1.8453    0.5058   -0.1200 C   0  0  0  0  0  0  0  0  0  0  0  0
   -3.0485    0.0818    0.2470 N   0  0  0  0  0  0  0  0  0  0  0  0
   -4.1615    0.0973    0.4847 N   0  0  0  0  0  0  0  0  0  0  0  0
   -1.8533    1.8273   -0.8162 C   0  0  2  0  0  0  0  0  0  0  0  0
   -0.5285    2.1333   -1.4113 C   0  0  0  0  0  0  0  0  0  0  0  0
    0.5590    1.3977   -1.0883 C   0  0  0  0  0  0  0  0  0  0  0  0
    1.8605    1.7983   -1.6818 N   0  0  0  0  0  0  0  0  0  0  0  0
    1.8740    2.7545   -2.4517 O   0  0  0  0  0  0  0  0  0  0  0  0
    2.8468    1.1420   -1.3552 O   0  0  0  0  0  0  0  0  0  0  0  0
    0.5483    0.2319   -0.2484 C   0  0  0  0  0  0  0  0  0  0  0  0
   -0.6543   -0.2121    0.2056 C   0  0  0  0  0  0  0  0  0  0  0  0
   -2.6712    1.9106   -1.5367 H   0  0  0  0  0  0  0  0  0  0  0  0
   -0.4387    2.9756   -2.0852 H   0  0  0  0  0  0  0  0  0  0  0  0
    1.4777   -0.2712   -0.0263 H   0  0  0  0  0  0  0  0  0  0  0  0
   -0.7324   -1.1069    0.8141 H   0  0  0  0  0  0  0  0  0  0  0  0
   -4.3264    2.3299    0.3688 O   0  0  0  0  0  0  0  0  0  0  0  0
   -3.4228    3.1269    0.5238 C   0  0  0  0  0  0  0  0  0  0  0  0
   -2.1572    2.9950    0.1540 O   0  0  0  0  0  0  0  0  0  0  0  0
   -3.6442    4.4990    1.2028 C   0  0  0  0  0  0  0  0  0  0  0  0
   -3.4978    5.4806    0.2946 F   0  0  0  0  0  0  0  0  0  0  0  0
   -4.8731    4.5700    1.7179 F   0  0  0  0  0  0  0  0  0  0  0  0
   -2.7506    4.6918    2.1862 F   0  0  0  0  0  0  0  0  0  0  0  0
  1 11  2  0  0  0  0
  1  2  1  0  0  0  0
  2  3  1  0  0  0  0
  4 12  1  6  0  0  0
  4  1  1  0  0  0  0
  4 18  1  0  0  0  0
  5  6  2  0  0  0  0
  5  4  1  0  0  0  0
  6 10  1  0  0  0  0
  7  9  2  0  0  0  0
  7  6  1  0  0  0  0
  8  7  2  0  0  0  0
 10 14  1  0  0  0  0
 10 11  1  0  0  0  0
 11 15  1  0  0  0  0
 13  5  1  0  0  0  0
 16 17  2  0  0  0  0
 17 19  1  0  0  0  0
 18 17  1  0  0  0  0
 19 21  1  0  0  0  0
 19 22  1  0  0  0  0
 20 19  1  0  0  0  0
M  RAD  3   2   2   3   3  10   2
M  END
