Coordinates from ORCA-job 4-NO2PhN2+~CF3COO-_B3LYPG-6-31G_dp-NX-Scan-d89-09-n800
 OpenBabel11261920383D

 22 22  0  0  0  0  0  0  0  0999 V2000
   -1.0164    1.0174    0.4845 C   0  0  0  0  0  0  0  0  0  0  0  0
   -1.7040    0.7886    1.7160 N   0  0  0  0  0  0  0  0  0  0  0  0
   -2.6682    1.4956    2.1120 N   0  0  0  0  0  0  0  0  0  0  0  0
   -0.7365    2.2576   -0.1255 C   0  0  0  0  0  0  0  0  0  0  0  0
    0.0471    2.3047   -1.2739 C   0  0  0  0  0  0  0  0  0  0  0  0
    0.5312    1.1176   -1.8189 C   0  0  0  0  0  0  0  0  0  0  0  0
    1.3443    1.1754   -3.0443 N   0  0  0  0  0  0  0  0  0  0  0  0
    1.5571    2.2833   -3.5350 O   0  0  0  0  0  0  0  0  0  0  0  0
    1.7674    0.1124   -3.4961 O   0  0  0  0  0  0  0  0  0  0  0  0
    0.2760   -0.1215   -1.2337 C   0  0  0  0  0  0  0  0  0  0  0  0
   -0.4810   -0.1592   -0.0708 C   0  0  0  0  0  0  0  0  0  0  0  0
   -1.1163    3.1827    0.2846 H   0  0  0  0  0  0  0  0  0  0  0  0
    0.2813    3.2445   -1.7577 H   0  0  0  0  0  0  0  0  0  0  0  0
    0.6818   -1.0191   -1.6821 H   0  0  0  0  0  0  0  0  0  0  0  0
   -0.6770   -1.0980    0.4354 H   0  0  0  0  0  0  0  0  0  0  0  0
   -3.0292    2.3691    1.4050 O   0  0  0  0  0  0  0  0  0  0  0  0
   -4.1139    3.1497    1.8645 C   0  0  0  0  0  0  0  0  0  0  0  0
   -4.7006    2.9921    2.8823 O   0  0  0  0  0  0  0  0  0  0  0  0
   -4.3706    4.2288    0.7960 C   0  0  0  0  0  0  0  0  0  0  0  0
   -4.7387    3.6538   -0.3572 F   0  0  0  0  0  0  0  0  0  0  0  0
   -5.3298    5.0503    1.2089 F   0  0  0  0  0  0  0  0  0  0  0  0
   -3.2434    4.9332    0.5841 F   0  0  0  0  0  0  0  0  0  0  0  0
  1  2  1  0  0  0  0
  2  3  2  0  0  0  0
  4 12  1  0  0  0  0
  4  1  2  0  0  0  0
  5  4  1  0  0  0  0
  6  5  2  0  0  0  0
  6 10  1  0  0  0  0
  7  6  1  0  0  0  0
  8  7  2  0  0  0  0
  9  7  2  0  0  0  0
 10 11  2  0  0  0  0
 11 15  1  0  0  0  0
 11  1  1  0  0  0  0
 13  5  1  0  0  0  0
 14 10  1  0  0  0  0
 16 17  1  0  0  0  0
 16  3  1  0  0  0  0
 17 18  2  0  0  0  0
 19 21  1  0  0  0  0
 19 17  1  0  0  0  0
 20 19  1  0  0  0  0
 22 19  1  0  0  0  0
M  END
