Coordinates from ORCA-job 4-NO2PhN2+~CF3COO-_B3LYPG-6-31G_dp-NX-Scan-d89-09-n800
 OpenBabel11261920383D

 22 22  0  0  1  0  0  0  0  0999 V2000
   -1.8743    0.5326   -0.1363 C   0  0  0  0  0  0  0  0  0  0  0  0
   -3.0701    0.0686    0.1891 N   0  0  0  0  0  0  0  0  0  0  0  0
   -4.1671   -0.0987    0.4250 N   0  0  0  0  0  0  0  0  0  0  0  0
   -1.8737    1.8457   -0.8554 C   0  0  2  0  0  0  0  0  0  0  0  0
   -0.5417    2.1255   -1.4578 C   0  0  0  0  0  0  0  0  0  0  0  0
    0.5442    1.4128   -1.0882 C   0  0  0  0  0  0  0  0  0  0  0  0
    1.8511    1.7906   -1.6835 N   0  0  0  0  0  0  0  0  0  0  0  0
    1.8698    2.7046   -2.5030 O   0  0  0  0  0  0  0  0  0  0  0  0
    2.8366    1.1593   -1.3082 O   0  0  0  0  0  0  0  0  0  0  0  0
    0.5273    0.2868   -0.1930 C   0  0  0  0  0  0  0  0  0  0  0  0
   -0.6785   -0.1535    0.2516 C   0  0  0  0  0  0  0  0  0  0  0  0
   -2.6863    1.9139   -1.5830 H   0  0  0  0  0  0  0  0  0  0  0  0
   -0.4487    2.9369   -2.1682 H   0  0  0  0  0  0  0  0  0  0  0  0
    1.4570   -0.1950    0.0712 H   0  0  0  0  0  0  0  0  0  0  0  0
   -0.7595   -1.0259    0.8917 H   0  0  0  0  0  0  0  0  0  0  0  0
   -4.3082    2.3474    0.3330 O   0  0  0  0  0  0  0  0  0  0  0  0
   -3.4064    3.1392    0.4980 C   0  0  0  0  0  0  0  0  0  0  0  0
   -2.1489    3.0197    0.0851 O   0  0  0  0  0  0  0  0  0  0  0  0
   -3.5993    4.4822    1.2402 C   0  0  0  0  0  0  0  0  0  0  0  0
   -3.4583    5.5024    0.3748 F   0  0  0  0  0  0  0  0  0  0  0  0
   -4.8182    4.5421    1.7798 F   0  0  0  0  0  0  0  0  0  0  0  0
   -2.6863    4.6220    2.2153 F   0  0  0  0  0  0  0  0  0  0  0  0
  1  2  1  0  0  0  0
  1 11  2  0  0  0  0
  2  3  1  0  0  0  0
  4 12  1  6  0  0  0
  4  1  1  0  0  0  0
  4 18  1  0  0  0  0
  5  6  2  0  0  0  0
  5  4  1  0  0  0  0
  6 10  1  0  0  0  0
  7  9  2  0  0  0  0
  7  6  1  0  0  0  0
  8  7  2  0  0  0  0
 10 14  1  0  0  0  0
 10 11  1  0  0  0  0
 11 15  1  0  0  0  0
 13  5  1  0  0  0  0
 16 17  2  0  0  0  0
 17 19  1  0  0  0  0
 18 17  1  0  0  0  0
 19 21  1  0  0  0  0
 19 22  1  0  0  0  0
 20 19  1  0  0  0  0
M  RAD  3   2   2   3   3  10   2
M  END
