Coordinates from ORCA-job 4-NO2PhN2+~CF3COO-_B3LYPG-6-31G_dp-NX-Scan-d89-09-n800
 OpenBabel11261920383D

 22 22  0  0  1  0  0  0  0  0999 V2000
   -1.8432    0.3723   -0.0134 C   0  0  0  0  0  0  0  0  0  0  0  0
   -2.9480   -0.2460    0.3521 N   0  0  0  0  0  0  0  0  0  0  0  0
   -3.9104   -0.7699    0.6620 N   0  0  0  0  0  0  0  0  0  0  0  0
   -1.9909    1.6778   -0.7319 C   0  0  2  0  0  0  0  0  0  0  0  0
   -0.7253    2.0496   -1.4308 C   0  0  0  0  0  0  0  0  0  0  0  0
    0.4393    1.4558   -1.0995 C   0  0  0  0  0  0  0  0  0  0  0  0
    1.6743    1.9268   -1.7736 N   0  0  0  0  0  0  0  0  0  0  0  0
    1.5686    2.8067   -2.6232 O   0  0  0  0  0  0  0  0  0  0  0  0
    2.7306    1.4009   -1.4295 O   0  0  0  0  0  0  0  0  0  0  0  0
    0.5692    0.3681   -0.1627 C   0  0  0  0  0  0  0  0  0  0  0  0
   -0.5629   -0.1734    0.3516 C   0  0  0  0  0  0  0  0  0  0  0  0
   -2.8549    1.6982   -1.3980 H   0  0  0  0  0  0  0  0  0  0  0  0
   -0.7488    2.8391   -2.1715 H   0  0  0  0  0  0  0  0  0  0  0  0
    1.5527   -0.0102    0.0753 H   0  0  0  0  0  0  0  0  0  0  0  0
   -0.5278   -1.0263    1.0212 H   0  0  0  0  0  0  0  0  0  0  0  0
   -4.2195    3.3448   -0.7285 O   0  0  0  0  0  0  0  0  0  0  0  0
   -3.3813    3.4677    0.1307 C   0  0  0  0  0  0  0  0  0  0  0  0
   -2.2587    2.7591    0.2839 O   0  0  0  0  0  0  0  0  0  0  0  0
   -3.4815    4.5202    1.2600 C   0  0  0  0  0  0  0  0  0  0  0  0
   -2.4264    5.3508    1.2167 F   0  0  0  0  0  0  0  0  0  0  0  0
   -4.5995    5.2356    1.1283 F   0  0  0  0  0  0  0  0  0  0  0  0
   -3.4951    3.9116    2.4592 F   0  0  0  0  0  0  0  0  0  0  0  0
  1 11  2  0  0  0  0
  1  2  1  0  0  0  0
  2  3  1  0  0  0  0
  4 12  1  6  0  0  0
  4  1  1  0  0  0  0
  4 18  1  0  0  0  0
  5  6  2  0  0  0  0
  5  4  1  0  0  0  0
  6 10  1  0  0  0  0
  7  9  2  0  0  0  0
  7  6  1  0  0  0  0
  8  7  2  0  0  0  0
 10 14  1  0  0  0  0
 10 11  1  0  0  0  0
 11 15  1  0  0  0  0
 13  5  1  0  0  0  0
 16 17  2  0  0  0  0
 17 18  1  0  0  0  0
 17 19  1  0  0  0  0
 19 22  1  0  0  0  0
 20 19  1  0  0  0  0
 21 19  1  0  0  0  0
M  RAD  3   2   2   3   3  10   2
M  END
