Coordinates from ORCA-job 4-NO2PhN2+~CF3COO-_B3LYPG-6-31G_dp-NX-Scan-d89-09-n800
 OpenBabel11261920383D

 22 22  0  0  1  0  0  0  0  0999 V2000
   -1.9045    0.5439   -0.1414 C   0  0  0  0  0  0  0  0  0  0  0  0
   -3.0751   -0.0018    0.1360 N   0  0  0  0  0  0  0  0  0  0  0  0
   -4.1023   -0.4274    0.3621 N   0  0  0  0  0  0  0  0  0  0  0  0
   -1.9079    1.8455   -0.8812 C   0  0  2  0  0  0  0  0  0  0  0  0
   -0.5789    2.1071   -1.5051 C   0  0  0  0  0  0  0  0  0  0  0  0
    0.5151    1.4350   -1.0905 C   0  0  0  0  0  0  0  0  0  0  0  0
    1.8202    1.7968   -1.6976 N   0  0  0  0  0  0  0  0  0  0  0  0
    1.8310    2.6575   -2.5730 O   0  0  0  0  0  0  0  0  0  0  0  0
    2.8125    1.2074   -1.2749 O   0  0  0  0  0  0  0  0  0  0  0  0
    0.5063    0.3605   -0.1318 C   0  0  0  0  0  0  0  0  0  0  0  0
   -0.6956   -0.0889    0.3099 C   0  0  0  0  0  0  0  0  0  0  0  0
   -2.7278    1.9019   -1.6002 H   0  0  0  0  0  0  0  0  0  0  0  0
   -0.4957    2.8795   -2.2588 H   0  0  0  0  0  0  0  0  0  0  0  0
    1.4417   -0.0838    0.1751 H   0  0  0  0  0  0  0  0  0  0  0  0
   -0.7676   -0.9340    0.9868 H   0  0  0  0  0  0  0  0  0  0  0  0
   -4.3365    2.4520    0.2184 O   0  0  0  0  0  0  0  0  0  0  0  0
   -3.4017    3.1842    0.4475 C   0  0  0  0  0  0  0  0  0  0  0  0
   -2.1437    3.0213    0.0471 O   0  0  0  0  0  0  0  0  0  0  0  0
   -3.5317    4.4824    1.2775 C   0  0  0  0  0  0  0  0  0  0  0  0
   -3.2133    5.5472    0.5209 F   0  0  0  0  0  0  0  0  0  0  0  0
   -4.7828    4.6264    1.7181 F   0  0  0  0  0  0  0  0  0  0  0  0
   -2.7012    4.4465    2.3334 F   0  0  0  0  0  0  0  0  0  0  0  0
  1  2  1  0  0  0  0
  1 11  2  0  0  0  0
  2  3  1  0  0  0  0
  4 12  1  6  0  0  0
  4  1  1  0  0  0  0
  4 18  1  0  0  0  0
  5  6  2  0  0  0  0
  5  4  1  0  0  0  0
  6 10  1  0  0  0  0
  7  9  2  0  0  0  0
  7  6  1  0  0  0  0
  8  7  2  0  0  0  0
 10 14  1  0  0  0  0
 10 11  1  0  0  0  0
 11 15  1  0  0  0  0
 13  5  1  0  0  0  0
 16 17  2  0  0  0  0
 17 19  1  0  0  0  0
 18 17  1  0  0  0  0
 19 21  1  0  0  0  0
 19 22  1  0  0  0  0
 20 19  1  0  0  0  0
M  RAD  3   2   2   3   3  10   2
M  END
