Coordinates from ORCA-job 4-NO2PhN2+~CF3COO-_B3LYPG-6-31G_dp-NX-Scan-d89-09-n800
 OpenBabel11261920383D

 22 21  0  0  0  0  0  0  0  0999 V2000
   -1.8697   -0.0511    0.2870 C   0  0  0  0  0  0  0  0  0  0  0  0
   -2.7114   -1.0008    0.7784 N   0  0  0  0  0  0  0  0  0  0  0  0
   -3.3326   -1.8448    1.1906 N   0  0  0  0  0  0  0  0  0  0  0  0
   -2.2794    0.7553   -0.8008 C   0  0  0  0  0  0  0  0  0  0  0  0
   -1.3153    1.5885   -1.3711 C   0  0  0  0  0  0  0  0  0  0  0  0
   -0.0500    1.6418   -0.8104 C   0  0  0  0  0  0  0  0  0  0  0  0
    0.9556    2.5308   -1.4212 N   0  0  0  0  0  0  0  0  0  0  0  0
    0.6364    3.1228   -2.4456 O   0  0  0  0  0  0  0  0  0  0  0  0
    2.0501    2.5981   -0.8636 O   0  0  0  0  0  0  0  0  0  0  0  0
    0.3281    0.8978    0.3251 C   0  0  0  0  0  0  0  0  0  0  0  0
   -0.5762    0.0327    0.8865 C   0  0  0  0  0  0  0  0  0  0  0  0
   -3.2792    0.7102   -1.2084 H   0  0  0  0  0  0  0  0  0  0  0  0
   -1.5784    2.2185   -2.2082 H   0  0  0  0  0  0  0  0  0  0  0  0
    1.3247    1.0200    0.7290 H   0  0  0  0  0  0  0  0  0  0  0  0
   -0.3317   -0.5739    1.7503 H   0  0  0  0  0  0  0  0  0  0  0  0
   -3.8386    5.2535   -1.0414 O   0  0  0  0  0  0  0  0  0  0  0  0
   -3.3918    4.1759   -0.6446 C   0  0  0  0  0  0  0  0  0  0  0  0
   -3.5937    3.0089   -1.1167 O   0  0  0  0  0  0  0  0  0  0  0  0
   -2.4031    4.2189    0.5610 C   0  0  0  0  0  0  0  0  0  0  0  0
   -2.4711    3.1010    1.3369 F   0  0  0  0  0  0  0  0  0  0  0  0
   -1.1171    4.2816    0.1046 F   0  0  0  0  0  0  0  0  0  0  0  0
   -2.5952    5.2733    1.3608 F   0  0  0  0  0  0  0  0  0  0  0  0
  1  2  1  0  0  0  0
  1 11  1  0  0  0  0
  2  3  1  0  0  0  0
  4  1  2  0  0  0  0
  5  6  2  0  0  0  0
  5  4  1  0  0  0  0
  6 10  1  0  0  0  0
  7  9  2  0  0  0  0
  7  6  1  0  0  0  0
  8  7  2  0  0  0  0
 10 14  1  0  0  0  0
 10 11  2  0  0  0  0
 11 15  1  0  0  0  0
 12  4  1  0  0  0  0
 13  5  1  0  0  0  0
 16 17  1  0  0  0  0
 17 19  1  0  0  0  0
 18 17  2  0  0  0  0
 19 20  1  0  0  0  0
 19 22  1  0  0  0  0
 21 19  1  0  0  0  0
M  RAD  3   2   2   3   3  16   2
M  END
