Coordinates from ORCA-job 4-NO2PhN2+~CF3COO-_B3LYPG-6-31G_dp-NX-Scan-d89-09-n800
 OpenBabel11261920383D

 22 22  0  0  1  0  0  0  0  0999 V2000
   -1.8387    0.3547   -0.0001 C   0  0  0  0  0  0  0  0  0  0  0  0
   -2.9360   -0.2712    0.3745 N   0  0  0  0  0  0  0  0  0  0  0  0
   -3.8927   -0.8011    0.6915 N   0  0  0  0  0  0  0  0  0  0  0  0
   -2.0027    1.6588   -0.7165 C   0  0  2  0  0  0  0  0  0  0  0  0
   -0.7451    2.0428   -1.4235 C   0  0  0  0  0  0  0  0  0  0  0  0
    0.4270    1.4593   -1.1005 C   0  0  0  0  0  0  0  0  0  0  0  0
    1.6535    1.9429   -1.7810 N   0  0  0  0  0  0  0  0  0  0  0  0
    1.5348    2.8251   -2.6266 O   0  0  0  0  0  0  0  0  0  0  0  0
    2.7166    1.4253   -1.4453 O   0  0  0  0  0  0  0  0  0  0  0  0
    0.5725    0.3710   -0.1665 C   0  0  0  0  0  0  0  0  0  0  0  0
   -0.5513   -0.1809    0.3548 C   0  0  0  0  0  0  0  0  0  0  0  0
   -2.8701    1.6739   -1.3783 H   0  0  0  0  0  0  0  0  0  0  0  0
   -0.7811    2.8332   -2.1629 H   0  0  0  0  0  0  0  0  0  0  0  0
    1.5608    0.0007    0.0641 H   0  0  0  0  0  0  0  0  0  0  0  0
   -0.5042   -1.0345    1.0229 H   0  0  0  0  0  0  0  0  0  0  0  0
   -4.1442    3.4296   -0.8047 O   0  0  0  0  0  0  0  0  0  0  0  0
   -3.3556    3.4938    0.1061 C   0  0  0  0  0  0  0  0  0  0  0  0
   -2.2768    2.7313    0.3068 O   0  0  0  0  0  0  0  0  0  0  0  0
   -3.4772    4.5227    1.2549 C   0  0  0  0  0  0  0  0  0  0  0  0
   -2.3796    5.2955    1.3066 F   0  0  0  0  0  0  0  0  0  0  0  0
   -4.5444    5.3006    1.0690 F   0  0  0  0  0  0  0  0  0  0  0  0
   -3.6050    3.8858    2.4329 F   0  0  0  0  0  0  0  0  0  0  0  0
  1 11  2  0  0  0  0
  1  2  1  0  0  0  0
  2  3  1  0  0  0  0
  4 12  1  6  0  0  0
  4  1  1  0  0  0  0
  4 18  1  0  0  0  0
  5  6  2  0  0  0  0
  5  4  1  0  0  0  0
  6 10  1  0  0  0  0
  7  9  2  0  0  0  0
  7  6  1  0  0  0  0
  8  7  2  0  0  0  0
 10 14  1  0  0  0  0
 10 11  1  0  0  0  0
 11 15  1  0  0  0  0
 13  5  1  0  0  0  0
 16 17  2  0  0  0  0
 17 18  1  0  0  0  0
 17 19  1  0  0  0  0
 19 20  1  0  0  0  0
 19 22  1  0  0  0  0
 21 19  1  0  0  0  0
M  RAD  3   2   2   3   3  10   2
M  END
