Coordinates from ORCA-job 4-NO2PhN2+~CF3COO-_B3LYPG-6-31G_dp-NX-Scan-d89-09-n800
 OpenBabel11261920383D

 22 22  0  0  1  0  0  0  0  0999 V2000
   -1.9038    0.5449   -0.1416 C   0  0  0  0  0  0  0  0  0  0  0  0
   -3.0756    0.0026    0.1378 N   0  0  0  0  0  0  0  0  0  0  0  0
   -4.1057   -0.4153    0.3645 N   0  0  0  0  0  0  0  0  0  0  0  0
   -1.9067    1.8463   -0.8819 C   0  0  2  0  0  0  0  0  0  0  0  0
   -0.5773    2.1077   -1.5050 C   0  0  0  0  0  0  0  0  0  0  0  0
    0.5162    1.4344   -1.0909 C   0  0  0  0  0  0  0  0  0  0  0  0
    1.8215    1.7959   -1.6977 N   0  0  0  0  0  0  0  0  0  0  0  0
    1.8329    2.6576   -2.5721 O   0  0  0  0  0  0  0  0  0  0  0  0
    2.8134    1.2053   -1.2757 O   0  0  0  0  0  0  0  0  0  0  0  0
    0.5067    0.3591   -0.1332 C   0  0  0  0  0  0  0  0  0  0  0  0
   -0.6955   -0.0894    0.3087 C   0  0  0  0  0  0  0  0  0  0  0  0
   -2.7261    1.9026   -1.6015 H   0  0  0  0  0  0  0  0  0  0  0  0
   -0.4935    2.8807   -2.2580 H   0  0  0  0  0  0  0  0  0  0  0  0
    1.4418   -0.0864    0.1730 H   0  0  0  0  0  0  0  0  0  0  0  0
   -0.7682   -0.9348    0.9852 H   0  0  0  0  0  0  0  0  0  0  0  0
   -4.3336    2.4447    0.2256 O   0  0  0  0  0  0  0  0  0  0  0  0
   -3.4012    3.1816    0.4495 C   0  0  0  0  0  0  0  0  0  0  0  0
   -2.1439    3.0230    0.0455 O   0  0  0  0  0  0  0  0  0  0  0  0
   -3.5341    4.4812    1.2770 C   0  0  0  0  0  0  0  0  0  0  0  0
   -3.2188    5.5454    0.5183 F   0  0  0  0  0  0  0  0  0  0  0  0
   -4.7853    4.6229    1.7182 F   0  0  0  0  0  0  0  0  0  0  0  0
   -2.7028    4.4493    2.3325 F   0  0  0  0  0  0  0  0  0  0  0  0
  1  2  1  0  0  0  0
  1 11  2  0  0  0  0
  2  3  1  0  0  0  0
  4 12  1  6  0  0  0
  4  1  1  0  0  0  0
  4 18  1  0  0  0  0
  5  6  2  0  0  0  0
  5  4  1  0  0  0  0
  6 10  1  0  0  0  0
  7  9  2  0  0  0  0
  7  6  1  0  0  0  0
  8  7  2  0  0  0  0
 10 14  1  0  0  0  0
 10 11  1  0  0  0  0
 11 15  1  0  0  0  0
 13  5  1  0  0  0  0
 16 17  2  0  0  0  0
 17 19  1  0  0  0  0
 18 17  1  0  0  0  0
 19 21  1  0  0  0  0
 19 22  1  0  0  0  0
 20 19  1  0  0  0  0
M  RAD  3   2   2   3   3  10   2
M  END
