Coordinates from ORCA-job 4-NO2PhN2+~CF3COO-_B3LYPG-6-31G_dp-NX-Scan-d89-09-n800
 OpenBabel11261920383D

 22 22  0  0  1  0  0  0  0  0999 V2000
   -1.8457    0.3790   -0.0186 C   0  0  0  0  0  0  0  0  0  0  0  0
   -2.9521   -0.2383    0.3434 N   0  0  0  0  0  0  0  0  0  0  0  0
   -3.9146   -0.7631    0.6513 N   0  0  0  0  0  0  0  0  0  0  0  0
   -1.9874    1.6849   -0.7378 C   0  0  2  0  0  0  0  0  0  0  0  0
   -0.7188    2.0520   -1.4336 C   0  0  0  0  0  0  0  0  0  0  0  0
    0.4432    1.4548   -1.0993 C   0  0  0  0  0  0  0  0  0  0  0  0
    1.6812    1.9215   -1.7708 N   0  0  0  0  0  0  0  0  0  0  0  0
    1.5802    2.8010   -2.6214 O   0  0  0  0  0  0  0  0  0  0  0  0
    2.7352    1.3935   -1.4229 O   0  0  0  0  0  0  0  0  0  0  0  0
    0.5674    0.3674   -0.1613 C   0  0  0  0  0  0  0  0  0  0  0  0
   -0.5677   -0.1702    0.3501 C   0  0  0  0  0  0  0  0  0  0  0  0
   -2.8502    1.7073   -1.4053 H   0  0  0  0  0  0  0  0  0  0  0  0
   -0.7377    2.8413   -2.1746 H   0  0  0  0  0  0  0  0  0  0  0  0
    1.5491   -0.0136    0.0796 H   0  0  0  0  0  0  0  0  0  0  0  0
   -0.5370   -1.0228    1.0204 H   0  0  0  0  0  0  0  0  0  0  0  0
   -4.2457    3.3110   -0.6972 O   0  0  0  0  0  0  0  0  0  0  0  0
   -3.3899    3.4572    0.1408 C   0  0  0  0  0  0  0  0  0  0  0  0
   -2.2519    2.7699    0.2747 O   0  0  0  0  0  0  0  0  0  0  0  0
   -3.4820    4.5199    1.2613 C   0  0  0  0  0  0  0  0  0  0  0  0
   -2.4419    5.3669    1.1858 F   0  0  0  0  0  0  0  0  0  0  0  0
   -4.6142    5.2158    1.1473 F   0  0  0  0  0  0  0  0  0  0  0  0
   -3.4591    3.9240    2.4666 F   0  0  0  0  0  0  0  0  0  0  0  0
  1  2  1  0  0  0  0
  1 11  2  0  0  0  0
  2  3  1  0  0  0  0
  4 12  1  6  0  0  0
  4  1  1  0  0  0  0
  4 18  1  0  0  0  0
  5  6  2  0  0  0  0
  5  4  1  0  0  0  0
  6 10  1  0  0  0  0
  7  9  2  0  0  0  0
  7  6  1  0  0  0  0
  8  7  2  0  0  0  0
 10 14  1  0  0  0  0
 10 11  1  0  0  0  0
 11 15  1  0  0  0  0
 13  5  1  0  0  0  0
 16 17  2  0  0  0  0
 17 18  1  0  0  0  0
 17 19  1  0  0  0  0
 19 22  1  0  0  0  0
 20 19  1  0  0  0  0
 21 19  1  0  0  0  0
M  RAD  3   2   2   3   3  10   2
M  END
