Coordinates from ORCA-job 4-NO2PhN2+~CF3COO-_B3LYPG-6-31G_dp-NX-Scan-d89-09-n800
 OpenBabel11261920383D

 22 22  0  0  1  0  0  0  0  0999 V2000
   -1.8939    0.1786    0.0777 C   0  0  1  0  0  0  0  0  0  0  0  0
   -2.8073   -0.7211    0.4005 N   0  0  0  0  0  0  0  0  0  0  0  0
   -3.5127   -1.5650    0.7055 N   0  0  0  0  0  0  0  0  0  0  0  0
   -2.2516    1.4210   -0.6873 C   0  0  2  0  0  0  0  0  0  0  0  0
   -1.0727    1.8944   -1.4795 C   0  0  0  0  0  0  0  0  0  0  0  0
    0.1755    1.5543   -1.0990 C   0  0  0  0  0  0  0  0  0  0  0  0
    1.3151    2.1286   -1.8552 N   0  0  0  0  0  0  0  0  0  0  0  0
    1.0662    2.8259   -2.8338 O   0  0  0  0  0  0  0  0  0  0  0  0
    2.4434    1.8600   -1.4469 O   0  0  0  0  0  0  0  0  0  0  0  0
    0.4842    0.6273   -0.0395 C   0  0  0  0  0  0  0  0  0  0  0  0
   -0.5377   -0.0732    0.5087 C   0  0  0  0  0  0  0  0  0  0  0  0
   -3.1354    1.2891   -1.3154 H   0  0  0  0  0  0  0  0  0  0  0  0
   -1.2347    2.5709   -2.3069 H   0  0  0  0  0  0  0  0  0  0  0  0
    1.5142    0.4727    0.2487 H   0  0  0  0  0  0  0  0  0  0  0  0
   -0.3599   -0.8448    1.2507 H   0  0  0  0  0  0  0  0  0  0  0  0
   -2.7331    4.2536   -1.1156 O   0  0  0  0  0  0  0  0  0  0  0  0
   -2.8435    3.7380   -0.0289 C   0  0  0  0  0  0  0  0  0  0  0  0
   -2.6549    2.4638    0.3338 O   0  0  0  0  0  0  0  0  0  0  0  0
   -3.2558    4.5437    1.2294 C   0  0  0  0  0  0  0  0  0  0  0  0
   -2.3099    4.4481    2.1801 F   0  0  0  0  0  0  0  0  0  0  0  0
   -3.4259    5.8298    0.9203 F   0  0  0  0  0  0  0  0  0  0  0  0
   -4.4090    4.0637    1.7310 F   0  0  0  0  0  0  0  0  0  0  0  0
  1  2  1  1  0  0  0
  1 11  1  0  0  0  0
  2  3  1  0  0  0  0
  4 12  1  6  0  0  0
  4  1  1  0  0  0  0
  4 18  1  0  0  0  0
  5  6  2  0  0  0  0
  5  4  1  0  0  0  0
  6 10  1  0  0  0  0
  7  9  2  0  0  0  0
  7  6  1  0  0  0  0
  8  7  2  0  0  0  0
 10 14  1  0  0  0  0
 10 11  2  0  0  0  0
 11 15  1  0  0  0  0
 13  5  1  0  0  0  0
 16 17  2  0  0  0  0
 17 18  1  0  0  0  0
 17 19  1  0  0  0  0
 19 22  1  0  0  0  0
 19 20  1  0  0  0  0
 21 19  1  0  0  0  0
M  RAD  3   1   2   2   2   3   3
M  END
