Coordinates from ORCA-job 4-NO2PhN2+~CF3COO-_B3LYPG-6-31G_dp-NX-Scan-d89-09-n800
 OpenBabel11261920383D

 22 21  0  0  0  0  0  0  0  0999 V2000
   -1.8817   -0.0177    0.2839 C   0  0  0  0  0  0  0  0  0  0  0  0
   -2.7272   -0.9595    0.7820 N   0  0  0  0  0  0  0  0  0  0  0  0
   -3.3488   -1.8001    1.2011 N   0  0  0  0  0  0  0  0  0  0  0  0
   -2.2789    0.7639   -0.8266 C   0  0  0  0  0  0  0  0  0  0  0  0
   -1.3065    1.5829   -1.4058 C   0  0  0  0  0  0  0  0  0  0  0  0
   -0.0491    1.6491   -0.8316 C   0  0  0  0  0  0  0  0  0  0  0  0
    0.9647    2.5220   -1.4521 N   0  0  0  0  0  0  0  0  0  0  0  0
    0.6582    3.0897   -2.4943 O   0  0  0  0  0  0  0  0  0  0  0  0
    2.0529    2.6016   -0.8842 O   0  0  0  0  0  0  0  0  0  0  0  0
    0.3147    0.9337    0.3278 C   0  0  0  0  0  0  0  0  0  0  0  0
   -0.5962    0.0830    0.8988 C   0  0  0  0  0  0  0  0  0  0  0  0
   -3.2708    0.6984   -1.2497 H   0  0  0  0  0  0  0  0  0  0  0  0
   -1.5555    2.1911   -2.2632 H   0  0  0  0  0  0  0  0  0  0  0  0
    1.3060    1.0667    0.7412 H   0  0  0  0  0  0  0  0  0  0  0  0
   -0.3631   -0.5016    1.7806 H   0  0  0  0  0  0  0  0  0  0  0  0
   -3.8059    5.2318   -1.0186 O   0  0  0  0  0  0  0  0  0  0  0  0
   -3.3753    4.1478   -0.6221 C   0  0  0  0  0  0  0  0  0  0  0  0
   -3.5856    2.9851   -1.1028 O   0  0  0  0  0  0  0  0  0  0  0  0
   -2.4009    4.1760    0.5954 C   0  0  0  0  0  0  0  0  0  0  0  0
   -2.4703    3.0446    1.3520 F   0  0  0  0  0  0  0  0  0  0  0  0
   -1.1104    4.2554    0.1557 F   0  0  0  0  0  0  0  0  0  0  0  0
   -2.6100    5.2152    1.4108 F   0  0  0  0  0  0  0  0  0  0  0  0
  1  2  1  0  0  0  0
  1 11  1  0  0  0  0
  2  3  1  0  0  0  0
  4  1  2  0  0  0  0
  5  6  2  0  0  0  0
  5  4  1  0  0  0  0
  6 10  1  0  0  0  0
  7  9  2  0  0  0  0
  7  6  1  0  0  0  0
  8  7  2  0  0  0  0
 10 14  1  0  0  0  0
 10 11  2  0  0  0  0
 11 15  1  0  0  0  0
 12  4  1  0  0  0  0
 13  5  1  0  0  0  0
 16 17  1  0  0  0  0
 17 19  1  0  0  0  0
 18 17  2  0  0  0  0
 19 20  1  0  0  0  0
 19 22  1  0  0  0  0
 21 19  1  0  0  0  0
M  RAD  3   2   2   3   3  16   2
M  END
