Coordinates from ORCA-job 4-NO2PhN2+~CF3COO-_B3LYPG-6-31G_dp-NX-Scan-d89-09-n800
 OpenBabel11261920383D

 22 22  0  0  1  0  0  0  0  0999 V2000
   -1.8249    0.2639    0.0648 C   0  0  0  0  0  0  0  0  0  0  0  0
   -2.8774   -0.4111    0.4810 N   0  0  0  0  0  0  0  0  0  0  0  0
   -3.7937   -0.9888    0.8329 N   0  0  0  0  0  0  0  0  0  0  0  0
   -2.0736    1.5617   -0.6372 C   0  0  2  0  0  0  0  0  0  0  0  0
   -0.8584    2.0153   -1.3780 C   0  0  0  0  0  0  0  0  0  0  0  0
    0.3492    1.4836   -1.1008 C   0  0  0  0  0  0  0  0  0  0  0  0
    1.5297    2.0334   -1.8128 N   0  0  0  0  0  0  0  0  0  0  0  0
    1.3434    2.9236   -2.6373 O   0  0  0  0  0  0  0  0  0  0  0  0
    2.6238    1.5485   -1.5321 O   0  0  0  0  0  0  0  0  0  0  0  0
    0.5762    0.3910   -0.1881 C   0  0  0  0  0  0  0  0  0  0  0  0
   -0.5023   -0.2162    0.3660 C   0  0  0  0  0  0  0  0  0  0  0  0
   -2.9523    1.5383   -1.2850 H   0  0  0  0  0  0  0  0  0  0  0  0
   -0.9616    2.8133   -2.1024 H   0  0  0  0  0  0  0  0  0  0  0  0
    1.5875    0.0623    0.0024 H   0  0  0  0  0  0  0  0  0  0  0  0
   -0.3930   -1.0743    1.0207 H   0  0  0  0  0  0  0  0  0  0  0  0
   -3.5708    3.8181   -1.0990 O   0  0  0  0  0  0  0  0  0  0  0  0
   -3.1550    3.6133    0.0154 C   0  0  0  0  0  0  0  0  0  0  0  0
   -2.4012    2.5878    0.4194 O   0  0  0  0  0  0  0  0  0  0  0  0
   -3.4544    4.5436    1.2143 C   0  0  0  0  0  0  0  0  0  0  0  0
   -2.3103    5.0038    1.7468 F   0  0  0  0  0  0  0  0  0  0  0  0
   -4.1958    5.5803    0.8215 F   0  0  0  0  0  0  0  0  0  0  0  0
   -4.1245    3.8679    2.1660 F   0  0  0  0  0  0  0  0  0  0  0  0
  1 11  2  0  0  0  0
  1  2  1  0  0  0  0
  2  3  1  0  0  0  0
  4 12  1  6  0  0  0
  4  1  1  0  0  0  0
  4 18  1  0  0  0  0
  5  6  2  0  0  0  0
  5  4  1  0  0  0  0
  6 10  1  0  0  0  0
  7  9  2  0  0  0  0
  7  6  1  0  0  0  0
  8  7  2  0  0  0  0
 10 14  1  0  0  0  0
 10 11  1  0  0  0  0
 11 15  1  0  0  0  0
 13  5  1  0  0  0  0
 16 17  2  0  0  0  0
 17 18  1  0  0  0  0
 17 19  1  0  0  0  0
 19 20  1  0  0  0  0
 19 22  1  0  0  0  0
 21 19  1  0  0  0  0
M  RAD  3   2   2   3   3  10   2
M  END
