Coordinates from ORCA-job 4-NO2PhN2+~CF3COO-_B3LYPG-6-31G_dp-NX-Scan-d89-09-n800
 OpenBabel11261920383D

 22 22  0  0  1  0  0  0  0  0999 V2000
   -1.8530    0.4056   -0.0391 C   0  0  0  0  0  0  0  0  0  0  0  0
   -2.9708   -0.2002    0.3080 N   0  0  0  0  0  0  0  0  0  0  0  0
   -3.9429   -0.7143    0.6030 N   0  0  0  0  0  0  0  0  0  0  0  0
   -1.9715    1.7126   -0.7613 C   0  0  2  0  0  0  0  0  0  0  0  0
   -0.6923    2.0619   -1.4464 C   0  0  0  0  0  0  0  0  0  0  0  0
    0.4590    1.4517   -1.0986 C   0  0  0  0  0  0  0  0  0  0  0  0
    1.7089    1.9001   -1.7604 N   0  0  0  0  0  0  0  0  0  0  0  0
    1.6262    2.7738   -2.6189 O   0  0  0  0  0  0  0  0  0  0  0  0
    2.7531    1.3614   -1.3996 O   0  0  0  0  0  0  0  0  0  0  0  0
    0.5610    0.3669   -0.1551 C   0  0  0  0  0  0  0  0  0  0  0  0
   -0.5856   -0.1566    0.3457 C   0  0  0  0  0  0  0  0  0  0  0  0
   -2.8295    1.7415   -1.4344 H   0  0  0  0  0  0  0  0  0  0  0  0
   -0.6942    2.8484   -2.1905 H   0  0  0  0  0  0  0  0  0  0  0  0
    1.5358   -0.0241    0.0977 H   0  0  0  0  0  0  0  0  0  0  0  0
   -0.5717   -1.0075    1.0187 H   0  0  0  0  0  0  0  0  0  0  0  0
   -4.3318    3.1693   -0.5647 O   0  0  0  0  0  0  0  0  0  0  0  0
   -3.4184    3.4112    0.1858 C   0  0  0  0  0  0  0  0  0  0  0  0
   -2.2262    2.8105    0.2402 O   0  0  0  0  0  0  0  0  0  0  0  0
   -3.4871    4.5156    1.2669 C   0  0  0  0  0  0  0  0  0  0  0  0
   -2.5187    5.4249    1.0663 F   0  0  0  0  0  0  0  0  0  0  0  0
   -4.6705    5.1295    1.2271 F   0  0  0  0  0  0  0  0  0  0  0  0
   -3.3192    3.9770    2.4879 F   0  0  0  0  0  0  0  0  0  0  0  0
  1  2  1  0  0  0  0
  1 11  2  0  0  0  0
  2  3  1  0  0  0  0
  4 12  1  6  0  0  0
  4  1  1  0  0  0  0
  4 18  1  0  0  0  0
  5  6  2  0  0  0  0
  5  4  1  0  0  0  0
  6 10  1  0  0  0  0
  7  9  2  0  0  0  0
  7  6  1  0  0  0  0
  8  7  2  0  0  0  0
 10 14  1  0  0  0  0
 10 11  1  0  0  0  0
 11 15  1  0  0  0  0
 13  5  1  0  0  0  0
 16 17  2  0  0  0  0
 17 18  1  0  0  0  0
 17 19  1  0  0  0  0
 19 22  1  0  0  0  0
 20 19  1  0  0  0  0
 21 19  1  0  0  0  0
M  RAD  3   2   2   3   3  10   2
M  END
