Coordinates from ORCA-job 4-NO2PhN2+~CF3COO-_B3LYPG-6-31G_dp-NX-Scan-d89-09-n800
 OpenBabel11261920383D

 22 21  0  0  0  0  0  0  0  0999 V2000
   -1.8331   -0.1135    0.2919 C   0  0  0  0  0  0  0  0  0  0  0  0
   -2.6736   -1.0708    0.7742 N   0  0  0  0  0  0  0  0  0  0  0  0
   -3.2956   -1.9178    1.1788 N   0  0  0  0  0  0  0  0  0  0  0  0
   -2.2696    0.7537   -0.7376 C   0  0  0  0  0  0  0  0  0  0  0  0
   -1.3173    1.6067   -1.2945 C   0  0  0  0  0  0  0  0  0  0  0  0
   -0.0301    1.6148   -0.7782 C   0  0  0  0  0  0  0  0  0  0  0  0
    0.9655    2.5236   -1.3765 N   0  0  0  0  0  0  0  0  0  0  0  0
    0.6226    3.1629   -2.3636 O   0  0  0  0  0  0  0  0  0  0  0  0
    2.0761    2.5565   -0.8477 O   0  0  0  0  0  0  0  0  0  0  0  0
    0.3787    0.8039    0.2976 C   0  0  0  0  0  0  0  0  0  0  0  0
   -0.5173   -0.0817    0.8434 C   0  0  0  0  0  0  0  0  0  0  0  0
   -3.2873    0.7596   -1.1031 H   0  0  0  0  0  0  0  0  0  0  0  0
   -1.6082    2.2865   -2.0822 H   0  0  0  0  0  0  0  0  0  0  0  0
    1.3911    0.8906    0.6703 H   0  0  0  0  0  0  0  0  0  0  0  0
   -0.2490   -0.7393    1.6619 H   0  0  0  0  0  0  0  0  0  0  0  0
   -3.9081    5.2987   -1.1193 O   0  0  0  0  0  0  0  0  0  0  0  0
   -3.4383    4.2408   -0.6955 C   0  0  0  0  0  0  0  0  0  0  0  0
   -3.6072    3.0594   -1.1421 O   0  0  0  0  0  0  0  0  0  0  0  0
   -2.4626    4.3241    0.5181 C   0  0  0  0  0  0  0  0  0  0  0  0
   -2.5989    3.2691    1.3662 F   0  0  0  0  0  0  0  0  0  0  0  0
   -1.1681    4.2896    0.0788 F   0  0  0  0  0  0  0  0  0  0  0  0
   -2.6094    5.4417    1.2375 F   0  0  0  0  0  0  0  0  0  0  0  0
  1  2  1  0  0  0  0
  1 11  1  0  0  0  0
  2  3  1  0  0  0  0
  4  1  2  0  0  0  0
  5  6  2  0  0  0  0
  5  4  1  0  0  0  0
  6 10  1  0  0  0  0
  7  9  2  0  0  0  0
  7  6  1  0  0  0  0
  8  7  2  0  0  0  0
 10 14  1  0  0  0  0
 10 11  2  0  0  0  0
 11 15  1  0  0  0  0
 12  4  1  0  0  0  0
 13  5  1  0  0  0  0
 16 17  1  0  0  0  0
 17 19  1  0  0  0  0
 18 17  2  0  0  0  0
 19 22  1  0  0  0  0
 19 20  1  0  0  0  0
 21 19  1  0  0  0  0
M  RAD  3   2   2   3   3  16   2
M  END
