Coordinates from ORCA-job 4-NO2PhN2+~CF3COO-_B3LYPG-6-31G_dp-NX-Scan-d89-09-n800
 OpenBabel11261920383D

 22 21  0  0  0  0  0  0  0  0999 V2000
   -1.8294   -0.1307    0.2926 C   0  0  0  0  0  0  0  0  0  0  0  0
   -2.6611   -1.0993    0.7686 N   0  0  0  0  0  0  0  0  0  0  0  0
   -3.2706   -1.9571    1.1695 N   0  0  0  0  0  0  0  0  0  0  0  0
   -2.2728    0.7457   -0.7264 C   0  0  0  0  0  0  0  0  0  0  0  0
   -1.3253    1.6050   -1.2806 C   0  0  0  0  0  0  0  0  0  0  0  0
   -0.0353    1.6120   -0.7700 C   0  0  0  0  0  0  0  0  0  0  0  0
    0.9563    2.5258   -1.3674 N   0  0  0  0  0  0  0  0  0  0  0  0
    0.6090    3.1676   -2.3513 O   0  0  0  0  0  0  0  0  0  0  0  0
    2.0673    2.5615   -0.8397 O   0  0  0  0  0  0  0  0  0  0  0  0
    0.3799    0.7938    0.2971 C   0  0  0  0  0  0  0  0  0  0  0  0
   -0.5111   -0.1001    0.8382 C   0  0  0  0  0  0  0  0  0  0  0  0
   -3.2927    0.7545   -1.0862 H   0  0  0  0  0  0  0  0  0  0  0  0
   -1.6210    2.2893   -2.0627 H   0  0  0  0  0  0  0  0  0  0  0  0
    1.3937    0.8800    0.6664 H   0  0  0  0  0  0  0  0  0  0  0  0
   -0.2369   -0.7651    1.6486 H   0  0  0  0  0  0  0  0  0  0  0  0
   -3.8972    5.3174   -1.1413 O   0  0  0  0  0  0  0  0  0  0  0  0
   -3.4350    4.2603   -0.7065 C   0  0  0  0  0  0  0  0  0  0  0  0
   -3.6092    3.0761   -1.1429 O   0  0  0  0  0  0  0  0  0  0  0  0
   -2.4637    4.3479    0.5101 C   0  0  0  0  0  0  0  0  0  0  0  0
   -2.6146    3.3042    1.3691 F   0  0  0  0  0  0  0  0  0  0  0  0
   -1.1675    4.2951    0.0771 F   0  0  0  0  0  0  0  0  0  0  0  0
   -2.6020    5.4754    1.2159 F   0  0  0  0  0  0  0  0  0  0  0  0
  1  2  1  0  0  0  0
  1 11  1  0  0  0  0
  2  3  1  0  0  0  0
  4  1  2  0  0  0  0
  5  6  2  0  0  0  0
  5  4  1  0  0  0  0
  6 10  1  0  0  0  0
  7  9  2  0  0  0  0
  7  6  1  0  0  0  0
  8  7  2  0  0  0  0
 10 14  1  0  0  0  0
 10 11  2  0  0  0  0
 11 15  1  0  0  0  0
 12  4  1  0  0  0  0
 13  5  1  0  0  0  0
 16 17  1  0  0  0  0
 17 19  1  0  0  0  0
 18 17  2  0  0  0  0
 19 22  1  0  0  0  0
 19 20  1  0  0  0  0
 21 19  1  0  0  0  0
M  RAD  3   2   2   3   3  16   2
M  END
