Coordinates from ORCA-job 4-NO2PhN2+~CF3COO-_B3LYPG-6-31G_dp-NX-Scan-d89-09-n800
 OpenBabel11261920383D

 22 22  0  0  1  0  0  0  0  0999 V2000
   -1.8718    0.1928    0.0748 C   0  0  0  0  0  0  0  0  0  0  0  0
   -2.8308   -0.6409    0.4341 N   0  0  0  0  0  0  0  0  0  0  0  0
   -3.5995   -1.4166    0.7618 N   0  0  0  0  0  0  0  0  0  0  0  0
   -2.2021    1.4580   -0.6598 C   0  0  2  0  0  0  0  0  0  0  0  0
   -1.0148    1.9346   -1.4369 C   0  0  0  0  0  0  0  0  0  0  0  0
    0.2260    1.5321   -1.0957 C   0  0  0  0  0  0  0  0  0  0  0  0
    1.3736    2.1101   -1.8380 N   0  0  0  0  0  0  0  0  0  0  0  0
    1.1348    2.8904   -2.7545 O   0  0  0  0  0  0  0  0  0  0  0  0
    2.4976    1.7677   -1.4760 O   0  0  0  0  0  0  0  0  0  0  0  0
    0.5195    0.5415   -0.0910 C   0  0  0  0  0  0  0  0  0  0  0  0
   -0.5190   -0.1344    0.4573 C   0  0  0  0  0  0  0  0  0  0  0  0
   -3.0868    1.3635   -1.2937 H   0  0  0  0  0  0  0  0  0  0  0  0
   -1.1670    2.6598   -2.2245 H   0  0  0  0  0  0  0  0  0  0  0  0
    1.5483    0.3281    0.1610 H   0  0  0  0  0  0  0  0  0  0  0  0
   -0.3574   -0.9409    1.1650 H   0  0  0  0  0  0  0  0  0  0  0  0
   -2.9663    4.1469   -1.1481 O   0  0  0  0  0  0  0  0  0  0  0  0
   -2.9309    3.7087   -0.0235 C   0  0  0  0  0  0  0  0  0  0  0  0
   -2.5817    2.4847    0.3837 O   0  0  0  0  0  0  0  0  0  0  0  0
   -3.3153    4.5563    1.2143 C   0  0  0  0  0  0  0  0  0  0  0  0
   -2.2813    4.6334    2.0697 F   0  0  0  0  0  0  0  0  0  0  0  0
   -3.6590    5.7899    0.8417 F   0  0  0  0  0  0  0  0  0  0  0  0
   -4.3555    3.9934    1.8567 F   0  0  0  0  0  0  0  0  0  0  0  0
  1  2  1  0  0  0  0
  1 11  2  0  0  0  0
  2  3  1  0  0  0  0
  4 12  1  6  0  0  0
  4  1  1  0  0  0  0
  4 18  1  0  0  0  0
  5  6  2  0  0  0  0
  5  4  1  0  0  0  0
  6 10  1  0  0  0  0
  7  9  2  0  0  0  0
  7  6  1  0  0  0  0
  8  7  2  0  0  0  0
 10 14  1  0  0  0  0
 10 11  1  0  0  0  0
 11 15  1  0  0  0  0
 13  5  1  0  0  0  0
 16 17  2  0  0  0  0
 17 18  1  0  0  0  0
 17 19  1  0  0  0  0
 19 22  1  0  0  0  0
 19 20  1  0  0  0  0
 21 19  1  0  0  0  0
M  RAD  3   2   2   3   3  10   2
M  END
