Coordinates from ORCA-job 4-NO2PhN2+~CF3COO-_B3LYPG-6-31G_dp-NX-Scan-d89-09-n800
 OpenBabel11261920383D

 22 21  0  0  0  0  0  0  0  0999 V2000
   -1.7410   -0.3188    0.2981 C   0  0  0  0  0  0  0  0  0  0  0  0
   -2.5445   -1.3263    0.7476 N   0  0  0  0  0  0  0  0  0  0  0  0
   -3.1340   -2.2063    1.1301 N   0  0  0  0  0  0  0  0  0  0  0  0
   -2.2569    0.6799   -0.5629 C   0  0  0  0  0  0  0  0  0  0  0  0
   -1.3563    1.6046   -1.0810 C   0  0  0  0  0  0  0  0  0  0  0  0
   -0.0228    1.5449   -0.6880 C   0  0  0  0  0  0  0  0  0  0  0  0
    0.9291    2.5196   -1.2558 N   0  0  0  0  0  0  0  0  0  0  0  0
    0.5186    3.2505   -2.1476 O   0  0  0  0  0  0  0  0  0  0  0  0
    2.0713    2.5101   -0.7966 O   0  0  0  0  0  0  0  0  0  0  0  0
    0.4722    0.5968    0.2215 C   0  0  0  0  0  0  0  0  0  0  0  0
   -0.3807   -0.3627    0.7183 C   0  0  0  0  0  0  0  0  0  0  0  0
   -3.3071    0.7533   -0.8199 H   0  0  0  0  0  0  0  0  0  0  0  0
   -1.7358    2.3876   -1.7260 H   0  0  0  0  0  0  0  0  0  0  0  0
    1.5157    0.6310    0.5078 H   0  0  0  0  0  0  0  0  0  0  0  0
   -0.0418   -1.1301    1.4044 H   0  0  0  0  0  0  0  0  0  0  0  0
   -3.9494    5.4770   -1.3640 O   0  0  0  0  0  0  0  0  0  0  0  0
   -3.4730    4.4606   -0.8495 C   0  0  0  0  0  0  0  0  0  0  0  0
   -3.5882    3.2514   -1.2267 O   0  0  0  0  0  0  0  0  0  0  0  0
   -2.5824    4.6355    0.4170 C   0  0  0  0  0  0  0  0  0  0  0  0
   -2.9479    3.7837    1.4091 F   0  0  0  0  0  0  0  0  0  0  0  0
   -1.2779    4.3406    0.1264 F   0  0  0  0  0  0  0  0  0  0  0  0
   -2.6066    5.8764    0.9161 F   0  0  0  0  0  0  0  0  0  0  0  0
  1 11  1  0  0  0  0
  1  2  1  0  0  0  0
  2  3  1  0  0  0  0
  4  1  2  0  0  0  0
  5  6  2  0  0  0  0
  5  4  1  0  0  0  0
  6 10  1  0  0  0  0
  7  9  2  0  0  0  0
  7  6  1  0  0  0  0
  8  7  2  0  0  0  0
 10 14  1  0  0  0  0
 10 11  2  0  0  0  0
 11 15  1  0  0  0  0
 12  4  1  0  0  0  0
 13  5  1  0  0  0  0
 16 17  2  0  0  0  0
 17 19  1  0  0  0  0
 18 17  1  0  0  0  0
 19 22  1  0  0  0  0
 19 20  1  0  0  0  0
 21 19  1  0  0  0  0
M  RAD  3   2   2   3   3  18   2
M  END
