Coordinates from ORCA-job 4-NO2PhN2+~CF3COO-_B3LYPG-6-31G_dp-NX-Scan-d89-09-n800
 OpenBabel11261920383D

 22 21  0  0  0  0  0  0  0  0999 V2000
   -1.8671    0.4106    0.2760 C   0  0  0  0  0  0  0  0  0  0  0  0
   -2.8104   -0.3135    0.9171 N   0  0  0  0  0  0  0  0  0  0  0  0
   -3.5539   -0.9648    1.4566 N   0  0  0  0  0  0  0  0  0  0  0  0
   -2.1843    0.9841   -0.9822 C   0  0  0  0  0  0  0  0  0  0  0  0
   -1.1090    1.5580   -1.6966 C   0  0  0  0  0  0  0  0  0  0  0  0
    0.1292    1.6298   -1.1068 C   0  0  0  0  0  0  0  0  0  0  0  0
    1.2366    2.2486   -1.8677 N   0  0  0  0  0  0  0  0  0  0  0  0
    0.9975    2.6290   -3.0087 O   0  0  0  0  0  0  0  0  0  0  0  0
    2.3246    2.3266   -1.3011 O   0  0  0  0  0  0  0  0  0  0  0  0
    0.4131    1.1417    0.1942 C   0  0  0  0  0  0  0  0  0  0  0  0
   -0.5839    0.5283    0.8982 C   0  0  0  0  0  0  0  0  0  0  0  0
   -3.1233    0.7663   -1.4654 H   0  0  0  0  0  0  0  0  0  0  0  0
   -1.2747    1.9706   -2.6819 H   0  0  0  0  0  0  0  0  0  0  0  0
    1.4087    1.2639    0.5995 H   0  0  0  0  0  0  0  0  0  0  0  0
   -0.4239    0.1325    1.8936 H   0  0  0  0  0  0  0  0  0  0  0  0
   -3.5426    5.1315   -0.7604 O   0  0  0  0  0  0  0  0  0  0  0  0
   -3.2840    3.9814   -0.4233 C   0  0  0  0  0  0  0  0  0  0  0  0
   -3.3274    2.9199   -1.1448 O   0  0  0  0  0  0  0  0  0  0  0  0
   -2.8365    3.7334    1.0457 C   0  0  0  0  0  0  0  0  0  0  0  0
   -3.4350    2.6264    1.5782 F   0  0  0  0  0  0  0  0  0  0  0  0
   -1.4952    3.4961    1.0998 F   0  0  0  0  0  0  0  0  0  0  0  0
   -3.0981    4.7587    1.8583 F   0  0  0  0  0  0  0  0  0  0  0  0
  1 11  1  0  0  0  0
  1  2  1  0  0  0  0
  2  3  1  0  0  0  0
  4  1  2  0  0  0  0
  5  6  2  0  0  0  0
  5  4  1  0  0  0  0
  6 10  1  0  0  0  0
  7  9  2  0  0  0  0
  7  6  1  0  0  0  0
  8  7  2  0  0  0  0
 10 14  1  0  0  0  0
 10 11  2  0  0  0  0
 11 15  1  0  0  0  0
 12  4  1  0  0  0  0
 13  5  1  0  0  0  0
 16 17  1  0  0  0  0
 17 19  1  0  0  0  0
 18 17  2  0  0  0  0
 19 21  1  0  0  0  0
 19 20  1  0  0  0  0
 19 22  1  0  0  0  0
M  RAD  3   2   2   3   3  16   2
M  END
