Coordinates from ORCA-job 4-NO2PhN2+~CF3COO-_B3LYPG-6-31G_dp-NX-Scan-d89-09-n800
 OpenBabel11261920383D

 22 22  0  0  1  0  0  0  0  0999 V2000
   -1.8964    0.5492   -0.1407 C   0  0  0  0  0  0  0  0  0  0  0  0
   -3.0765    0.0338    0.1557 N   0  0  0  0  0  0  0  0  0  0  0  0
   -4.1300   -0.3155    0.3876 N   0  0  0  0  0  0  0  0  0  0  0  0
   -1.8968    1.8499   -0.8819 C   0  0  2  0  0  0  0  0  0  0  0  0
   -0.5660    2.1124   -1.4995 C   0  0  0  0  0  0  0  0  0  0  0  0
    0.5246    1.4289   -1.0935 C   0  0  0  0  0  0  0  0  0  0  0  0
    1.8310    1.7908   -1.6984 N   0  0  0  0  0  0  0  0  0  0  0  0
    1.8455    2.6631   -2.5622 O   0  0  0  0  0  0  0  0  0  0  0  0
    2.8206    1.1903   -1.2851 O   0  0  0  0  0  0  0  0  0  0  0  0
    0.5118    0.3439   -0.1474 C   0  0  0  0  0  0  0  0  0  0  0  0
   -0.6921   -0.0986    0.2970 C   0  0  0  0  0  0  0  0  0  0  0  0
   -2.7134    1.9059   -1.6051 H   0  0  0  0  0  0  0  0  0  0  0  0
   -0.4784    2.8926   -2.2447 H   0  0  0  0  0  0  0  0  0  0  0  0
    1.4449   -0.1114    0.1501 H   0  0  0  0  0  0  0  0  0  0  0  0
   -0.7682   -0.9480    0.9679 H   0  0  0  0  0  0  0  0  0  0  0  0
   -4.3157    2.3978    0.2696 O   0  0  0  0  0  0  0  0  0  0  0  0
   -3.3993    3.1635    0.4644 C   0  0  0  0  0  0  0  0  0  0  0  0
   -2.1456    3.0309    0.0420 O   0  0  0  0  0  0  0  0  0  0  0  0
   -3.5539    4.4741    1.2705 C   0  0  0  0  0  0  0  0  0  0  0  0
   -3.2612    5.5319    0.4942 F   0  0  0  0  0  0  0  0  0  0  0  0
   -4.8060    4.5995    1.7143 F   0  0  0  0  0  0  0  0  0  0  0  0
   -2.7186    4.4743    2.3235 F   0  0  0  0  0  0  0  0  0  0  0  0
  1  2  1  0  0  0  0
  1 11  2  0  0  0  0
  2  3  1  0  0  0  0
  4 12  1  6  0  0  0
  4  1  1  0  0  0  0
  4 18  1  0  0  0  0
  5  6  2  0  0  0  0
  5  4  1  0  0  0  0
  6 10  1  0  0  0  0
  7  9  2  0  0  0  0
  7  6  1  0  0  0  0
  8  7  2  0  0  0  0
 10 14  1  0  0  0  0
 10 11  1  0  0  0  0
 11 15  1  0  0  0  0
 13  5  1  0  0  0  0
 16 17  2  0  0  0  0
 17 19  1  0  0  0  0
 18 17  1  0  0  0  0
 19 21  1  0  0  0  0
 19 22  1  0  0  0  0
 20 19  1  0  0  0  0
M  RAD  3   2   2   3   3  10   2
M  END
