Coordinates from ORCA-job 4-NO2PhN2+~CF3COO-_B3LYPG-6-31G_dp-NX-Scan-d89-09-n800
 OpenBabel11261920383D

 22 21  0  0  0  0  0  0  0  0999 V2000
   -1.7278   -0.5778    0.2735 C   0  0  0  0  0  0  0  0  0  0  0  0
   -2.5017   -1.6409    0.6353 N   0  0  0  0  0  0  0  0  0  0  0  0
   -3.0980   -2.5436    0.9488 N   0  0  0  0  0  0  0  0  0  0  0  0
   -2.3022    0.4954   -0.4490 C   0  0  0  0  0  0  0  0  0  0  0  0
   -1.4634    1.5234   -0.8577 C   0  0  0  0  0  0  0  0  0  0  0  0
   -0.1174    1.4731   -0.4994 C   0  0  0  0  0  0  0  0  0  0  0  0
    0.7798    2.5524   -0.9583 N   0  0  0  0  0  0  0  0  0  0  0  0
    0.3115    3.3797   -1.7285 O   0  0  0  0  0  0  0  0  0  0  0  0
    1.9364    2.5280   -0.5358 O   0  0  0  0  0  0  0  0  0  0  0  0
    0.4397    0.4398    0.2682 C   0  0  0  0  0  0  0  0  0  0  0  0
   -0.3584   -0.6162    0.6543 C   0  0  0  0  0  0  0  0  0  0  0  0
   -3.3624    0.5435   -0.6712 H   0  0  0  0  0  0  0  0  0  0  0  0
   -1.9130    2.3717   -1.3735 H   0  0  0  0  0  0  0  0  0  0  0  0
    1.4889    0.4822    0.5323 H   0  0  0  0  0  0  0  0  0  0  0  0
    0.0318   -1.4500    1.2260 H   0  0  0  0  0  0  0  0  0  0  0  0
   -4.2157    5.4866   -1.3214 O   0  0  0  0  0  0  0  0  0  0  0  0
   -3.5012    4.5815   -0.8723 C   0  0  0  0  0  0  0  0  0  0  0  0
   -3.5763    3.3384   -1.1117 O   0  0  0  0  0  0  0  0  0  0  0  0
   -2.3533    5.0399    0.0776 C   0  0  0  0  0  0  0  0  0  0  0  0
   -1.7587    3.9956    0.7255 F   0  0  0  0  0  0  0  0  0  0  0  0
   -1.3800    5.6720   -0.6110 F   0  0  0  0  0  0  0  0  0  0  0  0
   -2.7979    5.8844    1.0266 F   0  0  0  0  0  0  0  0  0  0  0  0
  1  2  1  0  0  0  0
  1 11  1  0  0  0  0
  2  3  1  0  0  0  0
  4  1  2  0  0  0  0
  5  6  2  0  0  0  0
  5  4  1  0  0  0  0
  6 10  1  0  0  0  0
  7  9  2  0  0  0  0
  7  6  1  0  0  0  0
  8  7  2  0  0  0  0
 10 14  1  0  0  0  0
 10 11  2  0  0  0  0
 11 15  1  0  0  0  0
 12  4  1  0  0  0  0
 13  5  1  0  0  0  0
 16 17  2  0  0  0  0
 17 19  1  0  0  0  0
 18 17  1  0  0  0  0
 19 20  1  0  0  0  0
 19 22  1  0  0  0  0
 21 19  1  0  0  0  0
M  RAD  3   2   2   3   3  18   2
M  END
