Coordinates from ORCA-job 4-NO2PhN2+~CF3COO-_B3LYPG-6-31G_dp-NX-Scan-d89-09-n800
 OpenBabel11261920383D

 22 22  0  0  1  0  0  0  0  0999 V2000
   -1.8728    0.1923    0.0749 C   0  0  0  0  0  0  0  0  0  0  0  0
   -2.8300   -0.6441    0.4330 N   0  0  0  0  0  0  0  0  0  0  0  0
   -3.5959   -1.4229    0.7601 N   0  0  0  0  0  0  0  0  0  0  0  0
   -2.2039    1.4568   -0.6607 C   0  0  2  0  0  0  0  0  0  0  0  0
   -1.0168    1.9333   -1.4381 C   0  0  0  0  0  0  0  0  0  0  0  0
    0.2243    1.5328   -1.0956 C   0  0  0  0  0  0  0  0  0  0  0  0
    1.3716    2.1109   -1.8381 N   0  0  0  0  0  0  0  0  0  0  0  0
    1.1326    2.8887   -2.7567 O   0  0  0  0  0  0  0  0  0  0  0  0
    2.4959    1.7702   -1.4751 O   0  0  0  0  0  0  0  0  0  0  0  0
    0.5182    0.5440   -0.0893 C   0  0  0  0  0  0  0  0  0  0  0  0
   -0.5198   -0.1326    0.4589 C   0  0  0  0  0  0  0  0  0  0  0  0
   -3.0886    1.3611   -1.2946 H   0  0  0  0  0  0  0  0  0  0  0  0
   -1.1692    2.6572   -2.2268 H   0  0  0  0  0  0  0  0  0  0  0  0
    1.5471    0.3322    0.1638 H   0  0  0  0  0  0  0  0  0  0  0  0
   -0.3577   -0.9382    1.1675 H   0  0  0  0  0  0  0  0  0  0  0  0
   -2.9580    4.1517   -1.1474 O   0  0  0  0  0  0  0  0  0  0  0  0
   -2.9280    3.7103   -0.0239 C   0  0  0  0  0  0  0  0  0  0  0  0
   -2.5843    2.4842    0.3820 O   0  0  0  0  0  0  0  0  0  0  0  0
   -3.3134    4.5562    1.2147 C   0  0  0  0  0  0  0  0  0  0  0  0
   -2.2811    4.6293    2.0725 F   0  0  0  0  0  0  0  0  0  0  0  0
   -3.6533    5.7913    0.8436 F   0  0  0  0  0  0  0  0  0  0  0  0
   -4.3563    3.9946    1.8536 F   0  0  0  0  0  0  0  0  0  0  0  0
  1  2  1  0  0  0  0
  1 11  2  0  0  0  0
  2  3  1  0  0  0  0
  4 12  1  6  0  0  0
  4  1  1  0  0  0  0
  4 18  1  0  0  0  0
  5  6  2  0  0  0  0
  5  4  1  0  0  0  0
  6 10  1  0  0  0  0
  7  9  2  0  0  0  0
  7  6  1  0  0  0  0
  8  7  2  0  0  0  0
 10 14  1  0  0  0  0
 10 11  1  0  0  0  0
 11 15  1  0  0  0  0
 13  5  1  0  0  0  0
 16 17  2  0  0  0  0
 17 18  1  0  0  0  0
 17 19  1  0  0  0  0
 19 22  1  0  0  0  0
 19 20  1  0  0  0  0
 21 19  1  0  0  0  0
M  RAD  3   2   2   3   3  10   2
M  END
