Coordinates from ORCA-job 4-NO2PhN2+~CF3COO-_B3LYPG-6-31G_dp-NX-Scan-d89-09-n800
 OpenBabel11261920383D

 22 21  0  0  0  0  0  0  0  0999 V2000
   -1.8571    0.4813    0.2715 C   0  0  0  0  0  0  0  0  0  0  0  0
   -2.8127   -0.2015    0.9343 N   0  0  0  0  0  0  0  0  0  0  0  0
   -3.5755   -0.8134    1.4926 N   0  0  0  0  0  0  0  0  0  0  0  0
   -2.1723    1.0341   -0.9994 C   0  0  0  0  0  0  0  0  0  0  0  0
   -1.0789    1.5521   -1.7387 C   0  0  0  0  0  0  0  0  0  0  0  0
    0.1583    1.6207   -1.1521 C   0  0  0  0  0  0  0  0  0  0  0  0
    1.2785    2.1862   -1.9376 N   0  0  0  0  0  0  0  0  0  0  0  0
    1.0469    2.5266   -3.0927 O   0  0  0  0  0  0  0  0  0  0  0  0
    2.3679    2.2645   -1.3742 O   0  0  0  0  0  0  0  0  0  0  0  0
    0.4360    1.1716    0.1661 C   0  0  0  0  0  0  0  0  0  0  0  0
   -0.5704    0.5976    0.8880 C   0  0  0  0  0  0  0  0  0  0  0  0
   -3.0991    0.7781   -1.4877 H   0  0  0  0  0  0  0  0  0  0  0  0
   -1.2344    1.9270   -2.7406 H   0  0  0  0  0  0  0  0  0  0  0  0
    1.4341    1.2891    0.5662 H   0  0  0  0  0  0  0  0  0  0  0  0
   -0.4164    0.2301    1.8953 H   0  0  0  0  0  0  0  0  0  0  0  0
   -3.4660    5.1192   -0.7029 O   0  0  0  0  0  0  0  0  0  0  0  0
   -3.2500    3.9592   -0.3757 C   0  0  0  0  0  0  0  0  0  0  0  0
   -3.2566    2.9171   -1.1310 O   0  0  0  0  0  0  0  0  0  0  0  0
   -2.9312    3.6697    1.1181 C   0  0  0  0  0  0  0  0  0  0  0  0
   -3.5816    2.5543    1.5668 F   0  0  0  0  0  0  0  0  0  0  0  0
   -1.6020    3.4198    1.2818 F   0  0  0  0  0  0  0  0  0  0  0  0
   -3.2570    4.6759    1.9303 F   0  0  0  0  0  0  0  0  0  0  0  0
  1 11  1  0  0  0  0
  1  2  1  0  0  0  0
  2  3  1  0  0  0  0
  4  1  2  0  0  0  0
  5  6  2  0  0  0  0
  5  4  1  0  0  0  0
  6 10  1  0  0  0  0
  7  9  2  0  0  0  0
  7  6  1  0  0  0  0
  8  7  2  0  0  0  0
 10 14  1  0  0  0  0
 10 11  2  0  0  0  0
 11 15  1  0  0  0  0
 12  4  1  0  0  0  0
 13  5  1  0  0  0  0
 16 17  1  0  0  0  0
 17 19  1  0  0  0  0
 18 17  2  0  0  0  0
 19 21  1  0  0  0  0
 19 20  1  0  0  0  0
 19 22  1  0  0  0  0
M  RAD  3   2   2   3   3  16   2
M  END
