Coordinates from ORCA-job 4-NO2PhN2+~CF3COO-_B3LYPG-6-31G_dp-NX-Scan-d89-09-n800
 OpenBabel11261920383D

 22 22  0  0  1  0  0  0  0  0999 V2000
   -1.8604    0.4214   -0.0539 C   0  0  0  0  0  0  0  0  0  0  0  0
   -2.9836   -0.1823    0.2802 N   0  0  0  0  0  0  0  0  0  0  0  0
   -3.9572   -0.6984    0.5660 N   0  0  0  0  0  0  0  0  0  0  0  0
   -1.9638    1.7298   -0.7762 C   0  0  2  0  0  0  0  0  0  0  0  0
   -0.6778    2.0680   -1.4541 C   0  0  0  0  0  0  0  0  0  0  0  0
    0.4667    1.4504   -1.0971 C   0  0  0  0  0  0  0  0  0  0  0  0
    1.7242    1.8880   -1.7516 N   0  0  0  0  0  0  0  0  0  0  0  0
    1.6536    2.7606   -2.6123 O   0  0  0  0  0  0  0  0  0  0  0  0
    2.7624    1.3453   -1.3799 O   0  0  0  0  0  0  0  0  0  0  0  0
    0.5544    0.3669   -0.1507 C   0  0  0  0  0  0  0  0  0  0  0  0
   -0.5996   -0.1484    0.3415 C   0  0  0  0  0  0  0  0  0  0  0  0
   -2.8184    1.7635   -1.4534 H   0  0  0  0  0  0  0  0  0  0  0  0
   -0.6689    2.8531   -2.1996 H   0  0  0  0  0  0  0  0  0  0  0  0
    1.5246   -0.0299    0.1104 H   0  0  0  0  0  0  0  0  0  0  0  0
   -0.5965   -0.9988    1.0152 H   0  0  0  0  0  0  0  0  0  0  0  0
   -4.3744    3.0742   -0.4677 O   0  0  0  0  0  0  0  0  0  0  0  0
   -3.4315    3.3793    0.2209 C   0  0  0  0  0  0  0  0  0  0  0  0
   -2.2111    2.8361    0.2180 O   0  0  0  0  0  0  0  0  0  0  0  0
   -3.4868    4.5164    1.2683 C   0  0  0  0  0  0  0  0  0  0  0  0
   -2.5750    5.4601    0.9809 F   0  0  0  0  0  0  0  0  0  0  0  0
   -4.6977    5.0757    1.2803 F   0  0  0  0  0  0  0  0  0  0  0  0
   -3.2226    4.0283    2.4932 F   0  0  0  0  0  0  0  0  0  0  0  0
  1  2  1  0  0  0  0
  1 11  2  0  0  0  0
  2  3  1  0  0  0  0
  4 12  1  6  0  0  0
  4  1  1  0  0  0  0
  4 18  1  0  0  0  0
  5  6  2  0  0  0  0
  5  4  1  0  0  0  0
  6 10  1  0  0  0  0
  7  9  2  0  0  0  0
  7  6  1  0  0  0  0
  8  7  2  0  0  0  0
 10 14  1  0  0  0  0
 10 11  1  0  0  0  0
 11 15  1  0  0  0  0
 13  5  1  0  0  0  0
 16 17  2  0  0  0  0
 17 19  1  0  0  0  0
 18 17  1  0  0  0  0
 19 21  1  0  0  0  0
 19 22  1  0  0  0  0
 20 19  1  0  0  0  0
M  RAD  3   2   2   3   3  10   2
M  END
