Coordinates from ORCA-job 4-NO2PhN2+~CF3COO-_B3LYPG-6-31G_dp-NX-Scan-d89-09-n800
 OpenBabel11261920383D

 22 22  0  0  1  0  0  0  0  0999 V2000
   -1.8345    0.3393    0.0114 C   0  0  0  0  0  0  0  0  0  0  0  0
   -2.9260   -0.2911    0.3946 N   0  0  0  0  0  0  0  0  0  0  0  0
   -3.8796   -0.8230    0.7177 N   0  0  0  0  0  0  0  0  0  0  0  0
   -2.0123    1.6426   -0.7026 C   0  0  2  0  0  0  0  0  0  0  0  0
   -0.7618    2.0382   -1.4157 C   0  0  0  0  0  0  0  0  0  0  0  0
    0.4164    1.4625   -1.1010 C   0  0  0  0  0  0  0  0  0  0  0  0
    1.6355    1.9573   -1.7870 N   0  0  0  0  0  0  0  0  0  0  0  0
    1.5057    2.8424   -2.6279 O   0  0  0  0  0  0  0  0  0  0  0  0
    2.7040    1.4451   -1.4603 O   0  0  0  0  0  0  0  0  0  0  0  0
    0.5753    0.3724   -0.1712 C   0  0  0  0  0  0  0  0  0  0  0  0
   -0.5412   -0.1884    0.3563 C   0  0  0  0  0  0  0  0  0  0  0  0
   -2.8820    1.6527   -1.3617 H   0  0  0  0  0  0  0  0  0  0  0  0
   -0.8085    2.8302   -2.1527 H   0  0  0  0  0  0  0  0  0  0  0  0
    1.5676    0.0083    0.0519 H   0  0  0  0  0  0  0  0  0  0  0  0
   -0.4838   -1.0432    1.0219 H   0  0  0  0  0  0  0  0  0  0  0  0
   -4.0717    3.4969   -0.8648 O   0  0  0  0  0  0  0  0  0  0  0  0
   -3.3312    3.5139    0.0875 C   0  0  0  0  0  0  0  0  0  0  0  0
   -2.2941    2.7066    0.3275 O   0  0  0  0  0  0  0  0  0  0  0  0
   -3.4747    4.5250    1.2495 C   0  0  0  0  0  0  0  0  0  0  0  0
   -2.3495    5.2465    1.3813 F   0  0  0  0  0  0  0  0  0  0  0  0
   -4.4943    5.3533    1.0197 F   0  0  0  0  0  0  0  0  0  0  0  0
   -3.6989    3.8717    2.4041 F   0  0  0  0  0  0  0  0  0  0  0  0
  1 11  2  0  0  0  0
  1  2  1  0  0  0  0
  2  3  1  0  0  0  0
  4 12  1  6  0  0  0
  4  1  1  0  0  0  0
  4 18  1  0  0  0  0
  5  6  2  0  0  0  0
  5  4  1  0  0  0  0
  6 10  1  0  0  0  0
  7  9  2  0  0  0  0
  7  6  1  0  0  0  0
  8  7  2  0  0  0  0
 10 14  1  0  0  0  0
 10 11  1  0  0  0  0
 11 15  1  0  0  0  0
 13  5  1  0  0  0  0
 16 17  2  0  0  0  0
 17 18  1  0  0  0  0
 17 19  1  0  0  0  0
 19 20  1  0  0  0  0
 19 22  1  0  0  0  0
 21 19  1  0  0  0  0
M  RAD  3   2   2   3   3  10   2
M  END
