Coordinates from ORCA-job 4-NO2PhN2+~CF3COO-_B3LYPG-6-31G_dp-NX-Scan-d89-09-n800
 OpenBabel11261920383D

 22 22  0  0  1  0  0  0  0  0999 V2000
   -1.9025    0.5283   -0.1261 C   0  0  0  0  0  0  0  0  0  0  0  0
   -3.0583   -0.0486    0.1474 N   0  0  0  0  0  0  0  0  0  0  0  0
   -4.0558   -0.5400    0.3791 N   0  0  0  0  0  0  0  0  0  0  0  0
   -1.9236    1.8274   -0.8701 C   0  0  2  0  0  0  0  0  0  0  0  0
   -0.6033    2.0953   -1.5114 C   0  0  0  0  0  0  0  0  0  0  0  0
    0.5017    1.4431   -1.0952 C   0  0  0  0  0  0  0  0  0  0  0  0
    1.7982    1.8111   -1.7161 N   0  0  0  0  0  0  0  0  0  0  0  0
    1.7927    2.6571   -2.6058 O   0  0  0  0  0  0  0  0  0  0  0  0
    2.8005    1.2417   -1.2894 O   0  0  0  0  0  0  0  0  0  0  0  0
    0.5115    0.3828   -0.1202 C   0  0  0  0  0  0  0  0  0  0  0  0
   -0.6814   -0.0796    0.3314 C   0  0  0  0  0  0  0  0  0  0  0  0
   -2.7531    1.8764   -1.5777 H   0  0  0  0  0  0  0  0  0  0  0  0
   -0.5359    2.8576   -2.2770 H   0  0  0  0  0  0  0  0  0  0  0  0
    1.4545   -0.0431    0.1899 H   0  0  0  0  0  0  0  0  0  0  0  0
   -0.7382   -0.9173    1.0189 H   0  0  0  0  0  0  0  0  0  0  0  0
   -4.3793    2.5627    0.0908 O   0  0  0  0  0  0  0  0  0  0  0  0
   -3.4158    3.2233    0.4005 C   0  0  0  0  0  0  0  0  0  0  0  0
   -2.1477    2.9950    0.0648 O   0  0  0  0  0  0  0  0  0  0  0  0
   -3.5092    4.4879    1.2856 C   0  0  0  0  0  0  0  0  0  0  0  0
   -2.9958    5.5496    0.6421 F   0  0  0  0  0  0  0  0  0  0  0  0
   -4.7819    4.7442    1.5932 F   0  0  0  0  0  0  0  0  0  0  0  0
   -2.8168    4.3040    2.4234 F   0  0  0  0  0  0  0  0  0  0  0  0
  1  2  1  0  0  0  0
  1 11  2  0  0  0  0
  2  3  1  0  0  0  0
  4 12  1  6  0  0  0
  4  1  1  0  0  0  0
  4 18  1  0  0  0  0
  5  6  2  0  0  0  0
  5  4  1  0  0  0  0
  6 10  1  0  0  0  0
  7  9  2  0  0  0  0
  7  6  1  0  0  0  0
  8  7  2  0  0  0  0
 10 14  1  0  0  0  0
 10 11  1  0  0  0  0
 11 15  1  0  0  0  0
 13  5  1  0  0  0  0
 16 17  2  0  0  0  0
 17 19  1  0  0  0  0
 18 17  1  0  0  0  0
 19 21  1  0  0  0  0
 19 22  1  0  0  0  0
 20 19  1  0  0  0  0
M  RAD  3   2   2   3   3  10   2
M  END
