Coordinates from ORCA-job 4-NO2PhN2+~CF3COO-_B3LYPG-6-31G_dp-NX-Scan-d89-09-n800
 OpenBabel11261920383D

 22 22  0  0  1  0  0  0  0  0999 V2000
   -1.8246    0.3083    0.0395 C   0  0  0  0  0  0  0  0  0  0  0  0
   -2.9027   -0.3323    0.4429 N   0  0  0  0  0  0  0  0  0  0  0  0
   -3.8480   -0.8695    0.7809 N   0  0  0  0  0  0  0  0  0  0  0  0
   -2.0334    1.6085   -0.6701 C   0  0  2  0  0  0  0  0  0  0  0  0
   -0.7996    2.0287   -1.3985 C   0  0  0  0  0  0  0  0  0  0  0  0
    0.3916    1.4692   -1.1043 C   0  0  0  0  0  0  0  0  0  0  0  0
    1.5931    1.9868   -1.8048 N   0  0  0  0  0  0  0  0  0  0  0  0
    1.4382    2.8788   -2.6340 O   0  0  0  0  0  0  0  0  0  0  0  0
    2.6732    1.4847   -1.5013 O   0  0  0  0  0  0  0  0  0  0  0  0
    0.5808    0.3759   -0.1838 C   0  0  0  0  0  0  0  0  0  0  0  0
   -0.5187   -0.2030    0.3598 C   0  0  0  0  0  0  0  0  0  0  0  0
   -2.9082    1.6049   -1.3228 H   0  0  0  0  0  0  0  0  0  0  0  0
   -0.8716    2.8242   -2.1296 H   0  0  0  0  0  0  0  0  0  0  0  0
    1.5816    0.0243    0.0207 H   0  0  0  0  0  0  0  0  0  0  0  0
   -0.4382   -1.0600    1.0201 H   0  0  0  0  0  0  0  0  0  0  0  0
   -3.8742    3.6416   -0.9860 O   0  0  0  0  0  0  0  0  0  0  0  0
   -3.2612    3.5600    0.0499 C   0  0  0  0  0  0  0  0  0  0  0  0
   -2.3327    2.6557    0.3728 O   0  0  0  0  0  0  0  0  0  0  0  0
   -3.4744    4.5292    1.2365 C   0  0  0  0  0  0  0  0  0  0  0  0
   -2.3174    5.1245    1.5696 F   0  0  0  0  0  0  0  0  0  0  0  0
   -4.3656    5.4672    0.9137 F   0  0  0  0  0  0  0  0  0  0  0  0
   -3.9274    3.8515    2.3072 F   0  0  0  0  0  0  0  0  0  0  0  0
  1 11  2  0  0  0  0
  1  2  1  0  0  0  0
  2  3  1  0  0  0  0
  4 12  1  6  0  0  0
  4  1  1  0  0  0  0
  4 18  1  0  0  0  0
  5  6  2  0  0  0  0
  5  4  1  0  0  0  0
  6 10  1  0  0  0  0
  7  9  2  0  0  0  0
  7  6  1  0  0  0  0
  8  7  2  0  0  0  0
 10 14  1  0  0  0  0
 10 11  1  0  0  0  0
 11 15  1  0  0  0  0
 13  5  1  0  0  0  0
 16 17  2  0  0  0  0
 17 18  1  0  0  0  0
 17 19  1  0  0  0  0
 19 20  1  0  0  0  0
 19 22  1  0  0  0  0
 21 19  1  0  0  0  0
M  RAD  3   2   2   3   3  10   2
M  END
