Coordinates from ORCA-job 4-NO2PhN2+~CF3COO-_B3LYPG-6-31G_dp-NX-Scan-d89-09-n800
 OpenBabel11261920383D

 22 22  0  0  1  0  0  0  0  0999 V2000
   -1.8936    0.5481   -0.1400 C   0  0  0  0  0  0  0  0  0  0  0  0
   -3.0758    0.0392    0.1606 N   0  0  0  0  0  0  0  0  0  0  0  0
   -4.1368   -0.2861    0.3932 N   0  0  0  0  0  0  0  0  0  0  0  0
   -1.8942    1.8493   -0.8807 C   0  0  2  0  0  0  0  0  0  0  0  0
   -0.5631    2.1136   -1.4962 C   0  0  0  0  0  0  0  0  0  0  0  0
    0.5270    1.4273   -1.0934 C   0  0  0  0  0  0  0  0  0  0  0  0
    1.8335    1.7909   -1.6974 N   0  0  0  0  0  0  0  0  0  0  0  0
    1.8484    2.6669   -2.5574 O   0  0  0  0  0  0  0  0  0  0  0  0
    2.8227    1.1869   -1.2880 O   0  0  0  0  0  0  0  0  0  0  0  0
    0.5139    0.3384   -0.1521 C   0  0  0  0  0  0  0  0  0  0  0  0
   -0.6902   -0.1036    0.2926 C   0  0  0  0  0  0  0  0  0  0  0  0
   -2.7099    1.9051   -1.6052 H   0  0  0  0  0  0  0  0  0  0  0  0
   -0.4748    2.8968   -2.2382 H   0  0  0  0  0  0  0  0  0  0  0  0
    1.4467   -0.1196    0.1422 H   0  0  0  0  0  0  0  0  0  0  0  0
   -0.7667   -0.9550    0.9610 H   0  0  0  0  0  0  0  0  0  0  0  0
   -4.3136    2.3880    0.2816 O   0  0  0  0  0  0  0  0  0  0  0  0
   -3.4007    3.1601    0.4675 C   0  0  0  0  0  0  0  0  0  0  0  0
   -2.1473    3.0313    0.0427 O   0  0  0  0  0  0  0  0  0  0  0  0
   -3.5593    4.4739    1.2676 C   0  0  0  0  0  0  0  0  0  0  0  0
   -3.2755    5.5292    0.4849 F   0  0  0  0  0  0  0  0  0  0  0  0
   -4.8103    4.5947    1.7158 F   0  0  0  0  0  0  0  0  0  0  0  0
   -2.7200    4.4840    2.3173 F   0  0  0  0  0  0  0  0  0  0  0  0
  1  2  1  0  0  0  0
  1 11  2  0  0  0  0
  2  3  1  0  0  0  0
  4 12  1  6  0  0  0
  4  1  1  0  0  0  0
  4 18  1  0  0  0  0
  5  6  2  0  0  0  0
  5  4  1  0  0  0  0
  6 10  1  0  0  0  0
  7  9  2  0  0  0  0
  7  6  1  0  0  0  0
  8  7  2  0  0  0  0
 10 14  1  0  0  0  0
 10 11  1  0  0  0  0
 11 15  1  0  0  0  0
 13  5  1  0  0  0  0
 16 17  2  0  0  0  0
 17 19  1  0  0  0  0
 18 17  1  0  0  0  0
 19 21  1  0  0  0  0
 19 22  1  0  0  0  0
 20 19  1  0  0  0  0
M  RAD  3   2   2   3   3  10   2
M  END
