Coordinates from ORCA-job 4-NO2PhN2+~CF3COO-_B3LYPG-6-31G_dp-NX-Scan-d89-09-n800
 OpenBabel11261920383D

 22 22  0  0  0  0  0  0  0  0999 V2000
   -1.0176    0.9787    0.4435 C   0  0  0  0  0  0  0  0  0  0  0  0
   -1.7345    0.7436    1.6512 N   0  0  0  0  0  0  0  0  0  0  0  0
   -2.6743    1.3817    2.1210 N   0  0  0  0  0  0  0  0  0  0  0  0
   -0.7790    2.2197   -0.1801 C   0  0  0  0  0  0  0  0  0  0  0  0
    0.0264    2.2712   -1.3129 C   0  0  0  0  0  0  0  0  0  0  0  0
    0.5657    1.0921   -1.8227 C   0  0  0  0  0  0  0  0  0  0  0  0
    1.4032    1.1578   -3.0354 N   0  0  0  0  0  0  0  0  0  0  0  0
    1.5879    2.2643   -3.5379 O   0  0  0  0  0  0  0  0  0  0  0  0
    1.8690    0.1021   -3.4589 O   0  0  0  0  0  0  0  0  0  0  0  0
    0.3490   -0.1452   -1.2209 C   0  0  0  0  0  0  0  0  0  0  0  0
   -0.4274   -0.1894   -0.0703 C   0  0  0  0  0  0  0  0  0  0  0  0
   -1.2093    3.1313    0.2063 H   0  0  0  0  0  0  0  0  0  0  0  0
    0.2339    3.2092   -1.8121 H   0  0  0  0  0  0  0  0  0  0  0  0
    0.7980   -1.0343   -1.6439 H   0  0  0  0  0  0  0  0  0  0  0  0
   -0.5967   -1.1242    0.4522 H   0  0  0  0  0  0  0  0  0  0  0  0
   -3.0826    2.4465    1.3253 O   0  0  0  0  0  0  0  0  0  0  0  0
   -4.1092    3.1782    1.8578 C   0  0  0  0  0  0  0  0  0  0  0  0
   -4.6785    3.0033    2.8912 O   0  0  0  0  0  0  0  0  0  0  0  0
   -4.4260    4.3153    0.8585 C   0  0  0  0  0  0  0  0  0  0  0  0
   -4.9185    3.8041   -0.2813 F   0  0  0  0  0  0  0  0  0  0  0  0
   -5.3169    5.1523    1.3834 F   0  0  0  0  0  0  0  0  0  0  0  0
   -3.3021    5.0008    0.5642 F   0  0  0  0  0  0  0  0  0  0  0  0
  1  2  1  0  0  0  0
  2  3  1  0  0  0  0
  4 12  1  0  0  0  0
  4  1  2  0  0  0  0
  5  4  1  0  0  0  0
  6  5  2  0  0  0  0
  6 10  1  0  0  0  0
  7  6  1  0  0  0  0
  8  7  2  0  0  0  0
  9  7  2  0  0  0  0
 10 11  2  0  0  0  0
 11  1  1  0  0  0  0
 11 15  1  0  0  0  0
 13  5  1  0  0  0  0
 14 10  1  0  0  0  0
 16 17  1  0  0  0  0
 16  3  1  0  0  0  0
 17 18  2  0  0  0  0
 19 21  1  0  0  0  0
 19 17  1  0  0  0  0
 20 19  1  0  0  0  0
 22 19  1  0  0  0  0
M  RAD  2   2   2   3   2
M  END
