Coordinates from ORCA-job 4-NO2PhN2+~CF3COO-_B3LYPG-6-31G_dp-NX-Scan-d89-09-n800
 OpenBabel11261920383D

 22 22  0  0  1  0  0  0  0  0999 V2000
   -1.8557    0.4116   -0.0435 C   0  0  0  0  0  0  0  0  0  0  0  0
   -2.9749   -0.1936    0.3004 N   0  0  0  0  0  0  0  0  0  0  0  0
   -3.9460   -0.7102    0.5942 N   0  0  0  0  0  0  0  0  0  0  0  0
   -1.9691    1.7182   -0.7670 C   0  0  2  0  0  0  0  0  0  0  0  0
   -0.6879    2.0627   -1.4508 C   0  0  0  0  0  0  0  0  0  0  0  0
    0.4612    1.4504   -1.0995 C   0  0  0  0  0  0  0  0  0  0  0  0
    1.7134    1.8941   -1.7601 N   0  0  0  0  0  0  0  0  0  0  0  0
    1.6351    2.7697   -2.6170 O   0  0  0  0  0  0  0  0  0  0  0  0
    2.7564    1.3583   -1.3913 O   0  0  0  0  0  0  0  0  0  0  0  0
    0.5587    0.3674   -0.1535 C   0  0  0  0  0  0  0  0  0  0  0  0
   -0.5903   -0.1527    0.3454 C   0  0  0  0  0  0  0  0  0  0  0  0
   -2.8264    1.7483   -1.4412 H   0  0  0  0  0  0  0  0  0  0  0  0
   -0.6864    2.8477   -2.1964 H   0  0  0  0  0  0  0  0  0  0  0  0
    1.5320   -0.0252    0.1024 H   0  0  0  0  0  0  0  0  0  0  0  0
   -0.5799   -1.0024    1.0199 H   0  0  0  0  0  0  0  0  0  0  0  0
   -4.3459    3.1414   -0.5363 O   0  0  0  0  0  0  0  0  0  0  0  0
   -3.4217    3.4037    0.1939 C   0  0  0  0  0  0  0  0  0  0  0  0
   -2.2205    2.8200    0.2310 O   0  0  0  0  0  0  0  0  0  0  0  0
   -3.4869    4.5148    1.2683 C   0  0  0  0  0  0  0  0  0  0  0  0
   -2.5336    5.4350    1.0461 F   0  0  0  0  0  0  0  0  0  0  0  0
   -4.6786    5.1133    1.2436 F   0  0  0  0  0  0  0  0  0  0  0  0
   -3.2924    3.9866    2.4899 F   0  0  0  0  0  0  0  0  0  0  0  0
  1  2  1  0  0  0  0
  1 11  2  0  0  0  0
  2  3  1  0  0  0  0
  4 12  1  6  0  0  0
  4  1  1  0  0  0  0
  4 18  1  0  0  0  0
  5  6  2  0  0  0  0
  5  4  1  0  0  0  0
  6 10  1  0  0  0  0
  7  9  2  0  0  0  0
  7  6  1  0  0  0  0
  8  7  2  0  0  0  0
 10 14  1  0  0  0  0
 10 11  1  0  0  0  0
 11 15  1  0  0  0  0
 13  5  1  0  0  0  0
 16 17  2  0  0  0  0
 17 18  1  0  0  0  0
 17 19  1  0  0  0  0
 19 22  1  0  0  0  0
 20 19  1  0  0  0  0
 21 19  1  0  0  0  0
M  RAD  3   2   2   3   3  10   2
M  END
