Coordinates from ORCA-job 4-NO2PhN2+~CF3COO-_B3LYPG-6-31G_dp-NX-Scan-d89-09-n800
 OpenBabel11261920383D

 22 21  0  0  0  0  0  0  0  0999 V2000
   -1.8742   -0.0378    0.2857 C   0  0  0  0  0  0  0  0  0  0  0  0
   -2.7178   -0.9845    0.7788 N   0  0  0  0  0  0  0  0  0  0  0  0
   -3.3391   -1.8268    1.1949 N   0  0  0  0  0  0  0  0  0  0  0  0
   -2.2784    0.7609   -0.8099 C   0  0  0  0  0  0  0  0  0  0  0  0
   -1.3102    1.5885   -1.3824 C   0  0  0  0  0  0  0  0  0  0  0  0
   -0.0476    1.6442   -0.8170 C   0  0  0  0  0  0  0  0  0  0  0  0
    0.9622    2.5262   -1.4311 N   0  0  0  0  0  0  0  0  0  0  0  0
    0.6488    3.1095   -2.4623 O   0  0  0  0  0  0  0  0  0  0  0  0
    2.0555    2.5937   -0.8714 O   0  0  0  0  0  0  0  0  0  0  0  0
    0.3245    0.9091    0.3268 C   0  0  0  0  0  0  0  0  0  0  0  0
   -0.5834    0.0501    0.8909 C   0  0  0  0  0  0  0  0  0  0  0  0
   -3.2754    0.7103   -1.2234 H   0  0  0  0  0  0  0  0  0  0  0  0
   -1.5676    2.2118   -2.2264 H   0  0  0  0  0  0  0  0  0  0  0  0
    1.3193    1.0337    0.7343 H   0  0  0  0  0  0  0  0  0  0  0  0
   -0.3439   -0.5494    1.7611 H   0  0  0  0  0  0  0  0  0  0  0  0
   -3.8403    5.2438   -1.0264 O   0  0  0  0  0  0  0  0  0  0  0  0
   -3.3921    4.1649   -0.6347 C   0  0  0  0  0  0  0  0  0  0  0  0
   -3.5933    2.9997   -1.1122 O   0  0  0  0  0  0  0  0  0  0  0  0
   -2.4031    4.2038    0.5709 C   0  0  0  0  0  0  0  0  0  0  0  0
   -2.4669    3.0808    1.3401 F   0  0  0  0  0  0  0  0  0  0  0  0
   -1.1176    4.2742    0.1147 F   0  0  0  0  0  0  0  0  0  0  0  0
   -2.5990    5.2524    1.3774 F   0  0  0  0  0  0  0  0  0  0  0  0
  1  2  1  0  0  0  0
  1 11  1  0  0  0  0
  2  3  1  0  0  0  0
  4  1  2  0  0  0  0
  5  6  2  0  0  0  0
  5  4  1  0  0  0  0
  6 10  1  0  0  0  0
  7  9  2  0  0  0  0
  7  6  1  0  0  0  0
  8  7  2  0  0  0  0
 10 14  1  0  0  0  0
 10 11  2  0  0  0  0
 11 15  1  0  0  0  0
 12  4  1  0  0  0  0
 13  5  1  0  0  0  0
 16 17  1  0  0  0  0
 17 19  1  0  0  0  0
 18 17  2  0  0  0  0
 19 20  1  0  0  0  0
 19 22  1  0  0  0  0
 21 19  1  0  0  0  0
M  RAD  3   2   2   3   3  16   2
M  END
