Coordinates from ORCA-job 4-NO2PhN2+~CF3COO-_B3LYPG-6-31G_dp-NX-Scan-d89-09-n800
 OpenBabel11261920383D

 22 21  0  0  0  0  0  0  0  0999 V2000
   -1.6855   -0.7153    0.2833 C   0  0  0  0  0  0  0  0  0  0  0  0
   -2.3866   -1.8342    0.6220 N   0  0  0  0  0  0  0  0  0  0  0  0
   -2.9444   -2.7666    0.9204 N   0  0  0  0  0  0  0  0  0  0  0  0
   -2.3523    0.3523   -0.3667 C   0  0  0  0  0  0  0  0  0  0  0  0
   -1.6044    1.4552   -0.7533 C   0  0  0  0  0  0  0  0  0  0  0  0
   -0.2430    1.4702   -0.4429 C   0  0  0  0  0  0  0  0  0  0  0  0
    0.5784    2.6096   -0.9011 N   0  0  0  0  0  0  0  0  0  0  0  0
    0.0820    3.3556   -1.7329 O   0  0  0  0  0  0  0  0  0  0  0  0
    1.7076    2.7052   -0.4194 O   0  0  0  0  0  0  0  0  0  0  0  0
    0.4053    0.4466    0.2611 C   0  0  0  0  0  0  0  0  0  0  0  0
   -0.3066   -0.6804    0.6187 C   0  0  0  0  0  0  0  0  0  0  0  0
   -3.4212    0.3229   -0.5478 H   0  0  0  0  0  0  0  0  0  0  0  0
   -2.1202    2.3138   -1.2121 H   0  0  0  0  0  0  0  0  0  0  0  0
    1.4576    0.5489    0.4949 H   0  0  0  0  0  0  0  0  0  0  0  0
    0.1587   -1.5132    1.1329 H   0  0  0  0  0  0  0  0  0  0  0  0
   -3.9806    5.6973   -1.4852 O   0  0  0  0  0  0  0  0  0  0  0  0
   -3.3491    4.7489   -1.0002 C   0  0  0  0  0  0  0  0  0  0  0  0
   -3.4825    3.5163   -1.2553 O   0  0  0  0  0  0  0  0  0  0  0  0
   -2.2546    5.1400    0.0387 C   0  0  0  0  0  0  0  0  0  0  0  0
   -1.7178    4.0542    0.6715 F   0  0  0  0  0  0  0  0  0  0  0  0
   -1.2308    5.7903   -0.5495 F   0  0  0  0  0  0  0  0  0  0  0  0
   -2.7495    5.9416    1.0013 F   0  0  0  0  0  0  0  0  0  0  0  0
  1 11  1  0  0  0  0
  1  2  1  0  0  0  0
  2  3  1  0  0  0  0
  4  1  2  0  0  0  0
  5  6  2  0  0  0  0
  5  4  1  0  0  0  0
  6 10  1  0  0  0  0
  7  6  1  0  0  0  0
  7  9  2  0  0  0  0
  8  7  2  0  0  0  0
 10 14  1  0  0  0  0
 10 11  2  0  0  0  0
 11 15  1  0  0  0  0
 12  4  1  0  0  0  0
 13  5  1  0  0  0  0
 16 17  2  0  0  0  0
 17 19  1  0  0  0  0
 18 17  1  0  0  0  0
 19 20  1  0  0  0  0
 19 22  1  0  0  0  0
 21 19  1  0  0  0  0
M  RAD  3   2   2   3   3  18   2
M  END
