Coordinates from ORCA-job 4-NO2PhN2+~CF3COO-_B3LYPG-6-31G_dp-NX-Scan-d89-09-n800
 OpenBabel11261920383D

 22 21  0  0  0  0  0  0  0  0999 V2000
   -1.8348   -0.1093    0.2918 C   0  0  0  0  0  0  0  0  0  0  0  0
   -2.6757   -1.0657    0.7747 N   0  0  0  0  0  0  0  0  0  0  0  0
   -3.2980   -1.9120    1.1800 N   0  0  0  0  0  0  0  0  0  0  0  0
   -2.2694    0.7556   -0.7403 C   0  0  0  0  0  0  0  0  0  0  0  0
   -1.3157    1.6066   -1.2980 C   0  0  0  0  0  0  0  0  0  0  0  0
   -0.0293    1.6152   -0.7800 C   0  0  0  0  0  0  0  0  0  0  0  0
    0.9676    2.5220   -1.3793 N   0  0  0  0  0  0  0  0  0  0  0  0
    0.6257    3.1608   -2.3671 O   0  0  0  0  0  0  0  0  0  0  0  0
    2.0774    2.5558   -0.8490 O   0  0  0  0  0  0  0  0  0  0  0  0
    0.3776    0.8068    0.2984 C   0  0  0  0  0  0  0  0  0  0  0  0
   -0.5197   -0.0768    0.8452 C   0  0  0  0  0  0  0  0  0  0  0  0
   -3.2863    0.7605   -1.1077 H   0  0  0  0  0  0  0  0  0  0  0  0
   -1.6049    2.2845   -2.0879 H   0  0  0  0  0  0  0  0  0  0  0  0
    1.3896    0.8939    0.6722 H   0  0  0  0  0  0  0  0  0  0  0  0
   -0.2530   -0.7324    1.6658 H   0  0  0  0  0  0  0  0  0  0  0  0
   -3.9101    5.2955   -1.1136 O   0  0  0  0  0  0  0  0  0  0  0  0
   -3.4390    4.2373   -0.6924 C   0  0  0  0  0  0  0  0  0  0  0  0
   -3.6076    3.0567   -1.1412 O   0  0  0  0  0  0  0  0  0  0  0  0
   -2.4617    4.3192    0.5199 C   0  0  0  0  0  0  0  0  0  0  0  0
   -2.5942    3.2614    1.3652 F   0  0  0  0  0  0  0  0  0  0  0  0
   -1.1679    4.2892    0.0786 F   0  0  0  0  0  0  0  0  0  0  0  0
   -2.6103    5.4343    1.2428 F   0  0  0  0  0  0  0  0  0  0  0  0
  1  2  1  0  0  0  0
  1 11  1  0  0  0  0
  2  3  1  0  0  0  0
  4  1  2  0  0  0  0
  5  6  2  0  0  0  0
  5  4  1  0  0  0  0
  6 10  1  0  0  0  0
  7  9  2  0  0  0  0
  7  6  1  0  0  0  0
  8  7  2  0  0  0  0
 10 14  1  0  0  0  0
 10 11  2  0  0  0  0
 11 15  1  0  0  0  0
 12  4  1  0  0  0  0
 13  5  1  0  0  0  0
 16 17  1  0  0  0  0
 17 19  1  0  0  0  0
 18 17  2  0  0  0  0
 19 22  1  0  0  0  0
 19 20  1  0  0  0  0
 21 19  1  0  0  0  0
M  RAD  3   2   2   3   3  16   2
M  END
