Coordinates from ORCA-job 4-NO2PhN2+~CF3COO-_B3LYPG-6-31G_dp-NX-Scan-d89-09-n800
 OpenBabel11261920383D

 22 22  0  0  1  0  0  0  0  0999 V2000
   -1.8815    0.4748   -0.0901 C   0  0  0  0  0  0  0  0  0  0  0  0
   -3.0186   -0.1222    0.2112 N   0  0  0  0  0  0  0  0  0  0  0  0
   -3.9964   -0.6418    0.4724 N   0  0  0  0  0  0  0  0  0  0  0  0
   -1.9432    1.7803   -0.8222 C   0  0  2  0  0  0  0  0  0  0  0  0
   -0.6399    2.0824   -1.4835 C   0  0  0  0  0  0  0  0  0  0  0  0
    0.4855    1.4476   -1.0972 C   0  0  0  0  0  0  0  0  0  0  0  0
    1.7626    1.8497   -1.7363 N   0  0  0  0  0  0  0  0  0  0  0  0
    1.7240    2.7079   -2.6134 O   0  0  0  0  0  0  0  0  0  0  0  0
    2.7834    1.2940   -1.3365 O   0  0  0  0  0  0  0  0  0  0  0  0
    0.5344    0.3763   -0.1347 C   0  0  0  0  0  0  0  0  0  0  0  0
   -0.6392   -0.1128    0.3378 C   0  0  0  0  0  0  0  0  0  0  0  0
   -2.7870    1.8223   -1.5125 H   0  0  0  0  0  0  0  0  0  0  0  0
   -0.6023    2.8562   -2.2397 H   0  0  0  0  0  0  0  0  0  0  0  0
    1.4915   -0.0345    0.1516 H   0  0  0  0  0  0  0  0  0  0  0  0
   -0.6656   -0.9567    1.0193 H   0  0  0  0  0  0  0  0  0  0  0  0
   -4.4234    2.8128   -0.1899 O   0  0  0  0  0  0  0  0  0  0  0  0
   -3.4389    3.3021    0.3091 C   0  0  0  0  0  0  0  0  0  0  0  0
   -2.1723    2.9176    0.1427 O   0  0  0  0  0  0  0  0  0  0  0  0
   -3.4945    4.5069    1.2776 C   0  0  0  0  0  0  0  0  0  0  0  0
   -2.7409    5.5174    0.8135 F   0  0  0  0  0  0  0  0  0  0  0  0
   -4.7513    4.9330    1.4136 F   0  0  0  0  0  0  0  0  0  0  0  0
   -3.0261    4.1459    2.4855 F   0  0  0  0  0  0  0  0  0  0  0  0
  1  2  1  0  0  0  0
  1 11  2  0  0  0  0
  2  3  1  0  0  0  0
  4 12  1  6  0  0  0
  4  1  1  0  0  0  0
  4 18  1  0  0  0  0
  5  6  2  0  0  0  0
  5  4  1  0  0  0  0
  6 10  1  0  0  0  0
  7  9  2  0  0  0  0
  7  6  1  0  0  0  0
  8  7  2  0  0  0  0
 10 14  1  0  0  0  0
 10 11  1  0  0  0  0
 11 15  1  0  0  0  0
 13  5  1  0  0  0  0
 16 17  2  0  0  0  0
 17 19  1  0  0  0  0
 18 17  1  0  0  0  0
 19 21  1  0  0  0  0
 19 22  1  0  0  0  0
 20 19  1  0  0  0  0
M  RAD  3   2   2   3   3  10   2
M  END
