Coordinates from ORCA-job 4-NO2PhN2+~CF3COO-_B3LYPG-6-31G_dp-NX-Scan-d89-09-n800
 OpenBabel11261920383D

 22 21  0  0  0  0  0  0  0  0999 V2000
   -1.7951   -0.1966    0.2960 C   0  0  0  0  0  0  0  0  0  0  0  0
   -2.6222   -1.1757    0.7619 N   0  0  0  0  0  0  0  0  0  0  0  0
   -3.2295   -2.0384    1.1552 N   0  0  0  0  0  0  0  0  0  0  0  0
   -2.2640    0.7358   -0.6603 C   0  0  0  0  0  0  0  0  0  0  0  0
   -1.3293    1.6159   -1.2005 C   0  0  0  0  0  0  0  0  0  0  0  0
   -0.0203    1.5845   -0.7369 C   0  0  0  0  0  0  0  0  0  0  0  0
    0.9607    2.5180   -1.3221 N   0  0  0  0  0  0  0  0  0  0  0  0
    0.5912    3.2012   -2.2689 O   0  0  0  0  0  0  0  0  0  0  0  0
    2.0852    2.5265   -0.8219 O   0  0  0  0  0  0  0  0  0  0  0  0
    0.4235    0.7066    0.2677 C   0  0  0  0  0  0  0  0  0  0  0  0
   -0.4580   -0.2088    0.7916 C   0  0  0  0  0  0  0  0  0  0  0  0
   -3.2974    0.7850   -0.9786 H   0  0  0  0  0  0  0  0  0  0  0  0
   -1.6543    2.3444   -1.9298 H   0  0  0  0  0  0  0  0  0  0  0  0
    1.4507    0.7628    0.6042 H   0  0  0  0  0  0  0  0  0  0  0  0
   -0.1610   -0.9201    1.5533 H   0  0  0  0  0  0  0  0  0  0  0  0
   -3.9536    5.3648   -1.2202 O   0  0  0  0  0  0  0  0  0  0  0  0
   -3.4718    4.3276   -0.7579 C   0  0  0  0  0  0  0  0  0  0  0  0
   -3.6160    3.1310   -1.1687 O   0  0  0  0  0  0  0  0  0  0  0  0
   -2.5166    4.4577    0.4672 C   0  0  0  0  0  0  0  0  0  0  0  0
   -2.7234    3.4757    1.3838 F   0  0  0  0  0  0  0  0  0  0  0  0
   -1.2156    4.3294    0.0639 F   0  0  0  0  0  0  0  0  0  0  0  0
   -2.6229    5.6316    1.0993 F   0  0  0  0  0  0  0  0  0  0  0  0
  1  2  1  0  0  0  0
  1 11  1  0  0  0  0
  2  3  1  0  0  0  0
  4  1  2  0  0  0  0
  5  6  2  0  0  0  0
  5  4  1  0  0  0  0
  6 10  1  0  0  0  0
  7  9  2  0  0  0  0
  7  6  1  0  0  0  0
  8  7  2  0  0  0  0
 10 14  1  0  0  0  0
 10 11  2  0  0  0  0
 11 15  1  0  0  0  0
 12  4  1  0  0  0  0
 13  5  1  0  0  0  0
 16 17  2  0  0  0  0
 17 19  1  0  0  0  0
 18 17  1  0  0  0  0
 19 22  1  0  0  0  0
 19 20  1  0  0  0  0
 21 19  1  0  0  0  0
M  RAD  3   2   2   3   3  18   2
M  END
