Coordinates from ORCA-job 4-NO2PhN2+~CF3COO-_B3LYPG-6-31G_dp-NX-Scan-d89-09-n800
 OpenBabel11261920383D

 22 22  0  0  1  0  0  0  0  0999 V2000
   -1.8966    0.4993   -0.1138 C   0  0  0  0  0  0  0  0  0  0  0  0
   -3.0427   -0.0938    0.1629 N   0  0  0  0  0  0  0  0  0  0  0  0
   -4.0261   -0.6115    0.4025 N   0  0  0  0  0  0  0  0  0  0  0  0
   -1.9343    1.8051   -0.8464 C   0  0  2  0  0  0  0  0  0  0  0  0
   -0.6207    2.0897   -1.4949 C   0  0  0  0  0  0  0  0  0  0  0  0
    0.4931    1.4453   -1.0908 C   0  0  0  0  0  0  0  0  0  0  0  0
    1.7822    1.8303   -1.7164 N   0  0  0  0  0  0  0  0  0  0  0  0
    1.7633    2.6827   -2.5997 O   0  0  0  0  0  0  0  0  0  0  0  0
    2.7923    1.2672   -1.3000 O   0  0  0  0  0  0  0  0  0  0  0  0
    0.5188    0.3783   -0.1231 C   0  0  0  0  0  0  0  0  0  0  0  0
   -0.6662   -0.0989    0.3331 C   0  0  0  0  0  0  0  0  0  0  0  0
   -2.7701    1.8551   -1.5459 H   0  0  0  0  0  0  0  0  0  0  0  0
   -0.5657    2.8587   -2.2548 H   0  0  0  0  0  0  0  0  0  0  0  0
    1.4679   -0.0403    0.1785 H   0  0  0  0  0  0  0  0  0  0  0  0
   -0.7103   -0.9414    1.0155 H   0  0  0  0  0  0  0  0  0  0  0  0
   -4.4119    2.6889   -0.0459 O   0  0  0  0  0  0  0  0  0  0  0  0
   -3.4292    3.2623    0.3594 C   0  0  0  0  0  0  0  0  0  0  0  0
   -2.1571    2.9542    0.1079 O   0  0  0  0  0  0  0  0  0  0  0  0
   -3.4957    4.5029    1.2804 C   0  0  0  0  0  0  0  0  0  0  0  0
   -2.9271    5.5604    0.6766 F   0  0  0  0  0  0  0  0  0  0  0  0
   -4.7649    4.8005    1.5647 F   0  0  0  0  0  0  0  0  0  0  0  0
   -2.8386    4.2641    2.4285 F   0  0  0  0  0  0  0  0  0  0  0  0
  1  2  1  0  0  0  0
  1 11  2  0  0  0  0
  2  3  1  0  0  0  0
  4 12  1  6  0  0  0
  4  1  1  0  0  0  0
  4 18  1  0  0  0  0
  5  6  2  0  0  0  0
  5  4  1  0  0  0  0
  6 10  1  0  0  0  0
  7  9  2  0  0  0  0
  7  6  1  0  0  0  0
  8  7  2  0  0  0  0
 10 14  1  0  0  0  0
 10 11  1  0  0  0  0
 11 15  1  0  0  0  0
 13  5  1  0  0  0  0
 16 17  2  0  0  0  0
 17 19  1  0  0  0  0
 18 17  1  0  0  0  0
 19 21  1  0  0  0  0
 19 22  1  0  0  0  0
 20 19  1  0  0  0  0
M  RAD  3   2   2   3   3  10   2
M  END
