Coordinates from ORCA-job 4-NO2PhN2+~CF3COO-_B3LYPG-6-31G_dp-NX-Scan-d89-09-n800
 OpenBabel11261920383D

 22 22  0  0  1  0  0  0  0  0999 V2000
   -1.8429    0.3700   -0.0119 C   0  0  0  0  0  0  0  0  0  0  0  0
   -2.9464   -0.2497    0.3547 N   0  0  0  0  0  0  0  0  0  0  0  0
   -3.9077   -0.7751    0.6656 N   0  0  0  0  0  0  0  0  0  0  0  0
   -1.9925    1.6754   -0.7300 C   0  0  2  0  0  0  0  0  0  0  0  0
   -0.7278    2.0489   -1.4296 C   0  0  0  0  0  0  0  0  0  0  0  0
    0.4378    1.4564   -1.0993 C   0  0  0  0  0  0  0  0  0  0  0  0
    1.6718    1.9291   -1.7739 N   0  0  0  0  0  0  0  0  0  0  0  0
    1.5644    2.8087   -2.6237 O   0  0  0  0  0  0  0  0  0  0  0  0
    2.7288    1.4035   -1.4316 O   0  0  0  0  0  0  0  0  0  0  0  0
    0.5695    0.3684   -0.1630 C   0  0  0  0  0  0  0  0  0  0  0  0
   -0.5616   -0.1745    0.3519 C   0  0  0  0  0  0  0  0  0  0  0  0
   -2.8569    1.6954   -1.3957 H   0  0  0  0  0  0  0  0  0  0  0  0
   -0.7527    2.8386   -2.1699 H   0  0  0  0  0  0  0  0  0  0  0  0
    1.5536   -0.0088    0.0741 H   0  0  0  0  0  0  0  0  0  0  0  0
   -0.5250   -1.0275    1.0212 H   0  0  0  0  0  0  0  0  0  0  0  0
   -4.2104    3.3566   -0.7389 O   0  0  0  0  0  0  0  0  0  0  0  0
   -3.3784    3.4711    0.1275 C   0  0  0  0  0  0  0  0  0  0  0  0
   -2.2612    2.7556    0.2868 O   0  0  0  0  0  0  0  0  0  0  0  0
   -3.4809    4.5207    1.2594 C   0  0  0  0  0  0  0  0  0  0  0  0
   -2.4207    5.3453    1.2264 F   0  0  0  0  0  0  0  0  0  0  0  0
   -4.5937    5.2428    1.1217 F   0  0  0  0  0  0  0  0  0  0  0  0
   -3.5067    3.9085    2.4565 F   0  0  0  0  0  0  0  0  0  0  0  0
  1 11  2  0  0  0  0
  1  2  1  0  0  0  0
  2  3  1  0  0  0  0
  4 12  1  6  0  0  0
  4  1  1  0  0  0  0
  4 18  1  0  0  0  0
  5  6  2  0  0  0  0
  5  4  1  0  0  0  0
  6 10  1  0  0  0  0
  7  9  2  0  0  0  0
  7  6  1  0  0  0  0
  8  7  2  0  0  0  0
 10 14  1  0  0  0  0
 10 11  1  0  0  0  0
 11 15  1  0  0  0  0
 13  5  1  0  0  0  0
 16 17  2  0  0  0  0
 17 18  1  0  0  0  0
 17 19  1  0  0  0  0
 19 22  1  0  0  0  0
 20 19  1  0  0  0  0
 21 19  1  0  0  0  0
M  RAD  3   2   2   3   3  10   2
M  END
