Coordinates from ORCA-job 4-NO2PhN2+~CF3COO-_B3LYPG-6-31G_dp-NX-Scan-d89-09-n800
 OpenBabel11261920383D

 22 21  0  0  0  0  0  0  0  0999 V2000
   -1.8832   -0.0053    0.2831 C   0  0  0  0  0  0  0  0  0  0  0  0
   -2.7364   -0.9360    0.7874 N   0  0  0  0  0  0  0  0  0  0  0  0
   -3.3713   -1.7650    1.2098 N   0  0  0  0  0  0  0  0  0  0  0  0
   -2.2754    0.7693   -0.8338 C   0  0  0  0  0  0  0  0  0  0  0  0
   -1.2993    1.5826   -1.4156 C   0  0  0  0  0  0  0  0  0  0  0  0
   -0.0436    1.6496   -0.8385 C   0  0  0  0  0  0  0  0  0  0  0  0
    0.9727    2.5191   -1.4598 N   0  0  0  0  0  0  0  0  0  0  0  0
    0.6679    3.0870   -2.5024 O   0  0  0  0  0  0  0  0  0  0  0  0
    2.0594    2.5999   -0.8894 O   0  0  0  0  0  0  0  0  0  0  0  0
    0.3162    0.9391    0.3256 C   0  0  0  0  0  0  0  0  0  0  0  0
   -0.5986    0.0953    0.9001 C   0  0  0  0  0  0  0  0  0  0  0  0
   -3.2654    0.7009   -1.2605 H   0  0  0  0  0  0  0  0  0  0  0  0
   -1.5458    2.1872   -2.2763 H   0  0  0  0  0  0  0  0  0  0  0  0
    1.3070    1.0718    0.7401 H   0  0  0  0  0  0  0  0  0  0  0  0
   -0.3695   -0.4836    1.7867 H   0  0  0  0  0  0  0  0  0  0  0  0
   -3.8147    5.2173   -1.0033 O   0  0  0  0  0  0  0  0  0  0  0  0
   -3.3780    4.1332   -0.6143 C   0  0  0  0  0  0  0  0  0  0  0  0
   -3.5832    2.9727   -1.1029 O   0  0  0  0  0  0  0  0  0  0  0  0
   -2.4026    4.1594    0.6025 C   0  0  0  0  0  0  0  0  0  0  0  0
   -2.4646    3.0228    1.3525 F   0  0  0  0  0  0  0  0  0  0  0  0
   -1.1131    4.2497    0.1626 F   0  0  0  0  0  0  0  0  0  0  0  0
   -2.6179    5.1920    1.4246 F   0  0  0  0  0  0  0  0  0  0  0  0
  1  2  1  0  0  0  0
  1 11  1  0  0  0  0
  2  3  1  0  0  0  0
  4  1  2  0  0  0  0
  5  6  2  0  0  0  0
  5  4  1  0  0  0  0
  6 10  1  0  0  0  0
  7  9  2  0  0  0  0
  7  6  1  0  0  0  0
  8  7  2  0  0  0  0
 10 14  1  0  0  0  0
 10 11  2  0  0  0  0
 11 15  1  0  0  0  0
 12  4  1  0  0  0  0
 13  5  1  0  0  0  0
 16 17  1  0  0  0  0
 17 19  1  0  0  0  0
 18 17  2  0  0  0  0
 19 20  1  0  0  0  0
 19 22  1  0  0  0  0
 21 19  1  0  0  0  0
M  RAD  3   2   2   3   3  16   2
M  END
