Coordinates from ORCA-job 4-NO2PhN2+~CF3COO-_B3LYPG-6-31G_dp-NX-Scan-d89-09-n800
 OpenBabel11261920383D

 22 21  0  0  0  0  0  0  0  0999 V2000
   -1.8695    0.3983    0.2769 C   0  0  0  0  0  0  0  0  0  0  0  0
   -2.8074   -0.3382    0.9125 N   0  0  0  0  0  0  0  0  0  0  0  0
   -3.5434   -1.0013    1.4482 N   0  0  0  0  0  0  0  0  0  0  0  0
   -2.1882    0.9766   -0.9785 C   0  0  0  0  0  0  0  0  0  0  0  0
   -1.1157    1.5584   -1.6898 C   0  0  0  0  0  0  0  0  0  0  0  0
    0.1226    1.6315   -1.0997 C   0  0  0  0  0  0  0  0  0  0  0  0
    1.2276    2.2579   -1.8576 N   0  0  0  0  0  0  0  0  0  0  0  0
    0.9875    2.6418   -2.9972 O   0  0  0  0  0  0  0  0  0  0  0  0
    2.3155    2.3368   -1.2906 O   0  0  0  0  0  0  0  0  0  0  0  0
    0.4078    1.1388    0.1990 C   0  0  0  0  0  0  0  0  0  0  0  0
   -0.5867    0.5180    0.9000 C   0  0  0  0  0  0  0  0  0  0  0  0
   -3.1286    0.7630   -1.4608 H   0  0  0  0  0  0  0  0  0  0  0  0
   -1.2832    1.9757   -2.6728 H   0  0  0  0  0  0  0  0  0  0  0  0
    1.4028    1.2633    0.6052 H   0  0  0  0  0  0  0  0  0  0  0  0
   -0.4252    0.1178    1.8934 H   0  0  0  0  0  0  0  0  0  0  0  0
   -3.5427    5.1364   -0.7722 O   0  0  0  0  0  0  0  0  0  0  0  0
   -3.2831    3.9874   -0.4307 C   0  0  0  0  0  0  0  0  0  0  0  0
   -3.3335    2.9220   -1.1456 O   0  0  0  0  0  0  0  0  0  0  0  0
   -2.8226    3.7466    1.0355 C   0  0  0  0  0  0  0  0  0  0  0  0
   -3.4140    2.6409    1.5780 F   0  0  0  0  0  0  0  0  0  0  0  0
   -1.4803    3.5124    1.0790 F   0  0  0  0  0  0  0  0  0  0  0  0
   -3.0792    4.7751    1.8460 F   0  0  0  0  0  0  0  0  0  0  0  0
  1 11  1  0  0  0  0
  1  2  1  0  0  0  0
  2  3  1  0  0  0  0
  4  1  2  0  0  0  0
  5  6  2  0  0  0  0
  5  4  1  0  0  0  0
  6 10  1  0  0  0  0
  7  9  2  0  0  0  0
  7  6  1  0  0  0  0
  8  7  2  0  0  0  0
 10 14  1  0  0  0  0
 10 11  2  0  0  0  0
 11 15  1  0  0  0  0
 12  4  1  0  0  0  0
 13  5  1  0  0  0  0
 16 17  1  0  0  0  0
 17 19  1  0  0  0  0
 18 17  2  0  0  0  0
 19 21  1  0  0  0  0
 19 20  1  0  0  0  0
 19 22  1  0  0  0  0
M  RAD  3   2   2   3   3  16   2
M  END
