Coordinates from ORCA-job 4-NO2PhN2+~CF3COO-_B3LYPG-6-31G_dp-NX-Scan-d89-09-n800
 OpenBabel11261920383D

 22 22  0  0  1  0  0  0  0  0999 V2000
   -1.8241    0.3047    0.0418 C   0  0  0  0  0  0  0  0  0  0  0  0
   -2.8999   -0.3388    0.4474 N   0  0  0  0  0  0  0  0  0  0  0  0
   -3.8424   -0.8798    0.7879 N   0  0  0  0  0  0  0  0  0  0  0  0
   -2.0362    1.6050   -0.6674 C   0  0  2  0  0  0  0  0  0  0  0  0
   -0.8038    2.0278   -1.3966 C   0  0  0  0  0  0  0  0  0  0  0  0
    0.3888    1.4705   -1.1042 C   0  0  0  0  0  0  0  0  0  0  0  0
    1.5885    1.9908   -1.8056 N   0  0  0  0  0  0  0  0  0  0  0  0
    1.4308    2.8819   -2.6352 O   0  0  0  0  0  0  0  0  0  0  0  0
    2.6696    1.4887   -1.5056 O   0  0  0  0  0  0  0  0  0  0  0  0
    0.5810    0.3769   -0.1846 C   0  0  0  0  0  0  0  0  0  0  0  0
   -0.5168   -0.2042    0.3600 C   0  0  0  0  0  0  0  0  0  0  0  0
   -2.9111    1.5998   -1.3199 H   0  0  0  0  0  0  0  0  0  0  0  0
   -0.8782    2.8237   -2.1271 H   0  0  0  0  0  0  0  0  0  0  0  0
    1.5827    0.0269    0.0184 H   0  0  0  0  0  0  0  0  0  0  0  0
   -0.4337   -1.0613    1.0198 H   0  0  0  0  0  0  0  0  0  0  0  0
   -3.8542    3.6569   -0.9964 O   0  0  0  0  0  0  0  0  0  0  0  0
   -3.2546    3.5647    0.0466 C   0  0  0  0  0  0  0  0  0  0  0  0
   -2.3377    2.6510    0.3763 O   0  0  0  0  0  0  0  0  0  0  0  0
   -3.4738    4.5304    1.2350 C   0  0  0  0  0  0  0  0  0  0  0  0
   -2.3147    5.1089    1.5896 F   0  0  0  0  0  0  0  0  0  0  0  0
   -4.3477    5.4815    0.9034 F   0  0  0  0  0  0  0  0  0  0  0  0
   -3.9523    3.8530    2.2947 F   0  0  0  0  0  0  0  0  0  0  0  0
  1 11  2  0  0  0  0
  1  2  1  0  0  0  0
  2  3  1  0  0  0  0
  4 12  1  6  0  0  0
  4  1  1  0  0  0  0
  4 18  1  0  0  0  0
  5  6  2  0  0  0  0
  5  4  1  0  0  0  0
  6 10  1  0  0  0  0
  7  9  2  0  0  0  0
  7  6  1  0  0  0  0
  8  7  2  0  0  0  0
 10 14  1  0  0  0  0
 10 11  1  0  0  0  0
 11 15  1  0  0  0  0
 13  5  1  0  0  0  0
 16 17  2  0  0  0  0
 17 18  1  0  0  0  0
 17 19  1  0  0  0  0
 19 20  1  0  0  0  0
 19 22  1  0  0  0  0
 21 19  1  0  0  0  0
M  RAD  3   2   2   3   3  10   2
M  END
