Coordinates from ORCA-job 4-NO2PhN2+~CF3COO-_B3LYPG-6-31G_dp-NX-Scan-d89-09-n800
 OpenBabel11261920383D

 22 22  0  0  1  0  0  0  0  0999 V2000
   -1.8388    0.2247    0.0773 C   0  0  0  0  0  0  0  0  0  0  0  0
   -2.8521   -0.5149    0.4833 N   0  0  0  0  0  0  0  0  0  0  0  0
   -3.7079   -1.1782    0.8370 N   0  0  0  0  0  0  0  0  0  0  0  0
   -2.1298    1.5115   -0.6302 C   0  0  2  0  0  0  0  0  0  0  0  0
   -0.9318    1.9851   -1.3894 C   0  0  0  0  0  0  0  0  0  0  0  0
    0.2940    1.5042   -1.1002 C   0  0  0  0  0  0  0  0  0  0  0  0
    1.4544    2.0769   -1.8271 N   0  0  0  0  0  0  0  0  0  0  0  0
    1.2377    2.9404   -2.6720 O   0  0  0  0  0  0  0  0  0  0  0  0
    2.5660    1.6477   -1.5247 O   0  0  0  0  0  0  0  0  0  0  0  0
    0.5595    0.4426   -0.1619 C   0  0  0  0  0  0  0  0  0  0  0  0
   -0.4981   -0.1964    0.3953 C   0  0  0  0  0  0  0  0  0  0  0  0
   -3.0138    1.4595   -1.2698 H   0  0  0  0  0  0  0  0  0  0  0  0
   -1.0652    2.7631   -2.1296 H   0  0  0  0  0  0  0  0  0  0  0  0
    1.5817    0.1577    0.0415 H   0  0  0  0  0  0  0  0  0  0  0  0
   -0.3603   -1.0394    1.0643 H   0  0  0  0  0  0  0  0  0  0  0  0
   -3.2779    3.9712   -1.1487 O   0  0  0  0  0  0  0  0  0  0  0  0
   -3.0464    3.6584   -0.0061 C   0  0  0  0  0  0  0  0  0  0  0  0
   -2.4795    2.5303    0.4280 O   0  0  0  0  0  0  0  0  0  0  0  0
   -3.4016    4.5563    1.2028 C   0  0  0  0  0  0  0  0  0  0  0  0
   -2.3076    4.8067    1.9412 F   0  0  0  0  0  0  0  0  0  0  0  0
   -3.9143    5.7141    0.7845 F   0  0  0  0  0  0  0  0  0  0  0  0
   -4.3076    3.9378    1.9829 F   0  0  0  0  0  0  0  0  0  0  0  0
  1 11  2  0  0  0  0
  1  2  1  0  0  0  0
  2  3  1  0  0  0  0
  4 12  1  6  0  0  0
  4  1  1  0  0  0  0
  4 18  1  0  0  0  0
  5  6  2  0  0  0  0
  5  4  1  0  0  0  0
  6 10  1  0  0  0  0
  7  9  2  0  0  0  0
  7  6  1  0  0  0  0
  8  7  2  0  0  0  0
 10 14  1  0  0  0  0
 10 11  1  0  0  0  0
 11 15  1  0  0  0  0
 13  5  1  0  0  0  0
 16 17  2  0  0  0  0
 17 18  1  0  0  0  0
 17 19  1  0  0  0  0
 19 20  1  0  0  0  0
 19 22  1  0  0  0  0
 21 19  1  0  0  0  0
M  RAD  3   2   2   3   3  10   2
M  END
