Coordinates from ORCA-job 4-NO2PhN2+~CF3COO-_B3LYPG-6-31G_dp-NX-Scan-d89-09-n800
 OpenBabel11261920383D

 22 22  0  0  0  0  0  0  0  0999 V2000
   -1.0283    1.0141    0.4777 C   0  0  0  0  0  0  0  0  0  0  0  0
   -1.7214    0.7848    1.7048 N   0  0  0  0  0  0  0  0  0  0  0  0
   -2.6895    1.5352    2.0692 N   0  0  0  0  0  0  0  0  0  0  0  0
   -0.7538    2.2522   -0.1421 C   0  0  0  0  0  0  0  0  0  0  0  0
    0.0352    2.3009   -1.2866 C   0  0  0  0  0  0  0  0  0  0  0  0
    0.5361    1.1162   -1.8219 C   0  0  0  0  0  0  0  0  0  0  0  0
    1.3551    1.1746   -3.0407 N   0  0  0  0  0  0  0  0  0  0  0  0
    1.5553    2.2809   -3.5420 O   0  0  0  0  0  0  0  0  0  0  0  0
    1.7896    0.1130   -3.4863 O   0  0  0  0  0  0  0  0  0  0  0  0
    0.2880   -0.1214   -1.2288 C   0  0  0  0  0  0  0  0  0  0  0  0
   -0.4792   -0.1597   -0.0735 C   0  0  0  0  0  0  0  0  0  0  0  0
   -1.1402    3.1793    0.2586 H   0  0  0  0  0  0  0  0  0  0  0  0
    0.2630    3.2403   -1.7743 H   0  0  0  0  0  0  0  0  0  0  0  0
    0.7046   -1.0182   -1.6690 H   0  0  0  0  0  0  0  0  0  0  0  0
   -0.6733   -1.0982    0.4344 H   0  0  0  0  0  0  0  0  0  0  0  0
   -3.0166    2.3420    1.4296 O   0  0  0  0  0  0  0  0  0  0  0  0
   -4.1322    3.1623    1.8860 C   0  0  0  0  0  0  0  0  0  0  0  0
   -4.7052    2.9899    2.9039 O   0  0  0  0  0  0  0  0  0  0  0  0
   -4.3628    4.2336    0.8080 C   0  0  0  0  0  0  0  0  0  0  0  0
   -4.7070    3.6491   -0.3460 F   0  0  0  0  0  0  0  0  0  0  0  0
   -5.3283    5.0586    1.1977 F   0  0  0  0  0  0  0  0  0  0  0  0
   -3.2286    4.9299    0.6196 F   0  0  0  0  0  0  0  0  0  0  0  0
  1  2  1  0  0  0  0
  2  3  2  0  0  0  0
  4 12  1  0  0  0  0
  4  1  2  0  0  0  0
  5  4  1  0  0  0  0
  6  5  2  0  0  0  0
  6 10  1  0  0  0  0
  7  6  1  0  0  0  0
  8  7  2  0  0  0  0
  9  7  2  0  0  0  0
 10 11  2  0  0  0  0
 11 15  1  0  0  0  0
 11  1  1  0  0  0  0
 13  5  1  0  0  0  0
 14 10  1  0  0  0  0
 16 17  1  0  0  0  0
 16  3  1  0  0  0  0
 17 18  2  0  0  0  0
 19 21  1  0  0  0  0
 19 17  1  0  0  0  0
 20 19  1  0  0  0  0
 22 19  1  0  0  0  0
M  END
