Coordinates from ORCA-job 4-NO2PhN2+~CF3COO-_B3LYPG-6-31G_dp-NX-Scan-d89-09-n800
 OpenBabel11261920383D

 22 22  0  0  0  0  0  0  0  0999 V2000
   -1.0150    0.9954    0.4682 C   0  0  0  0  0  0  0  0  0  0  0  0
   -1.7138    0.7627    1.6895 N   0  0  0  0  0  0  0  0  0  0  0  0
   -2.6657    1.4264    2.1286 N   0  0  0  0  0  0  0  0  0  0  0  0
   -0.7608    2.2372   -0.1476 C   0  0  0  0  0  0  0  0  0  0  0  0
    0.0319    2.2885   -1.2893 C   0  0  0  0  0  0  0  0  0  0  0  0
    0.5448    1.1061   -1.8184 C   0  0  0  0  0  0  0  0  0  0  0  0
    1.3680    1.1702   -3.0394 N   0  0  0  0  0  0  0  0  0  0  0  0
    1.5591    2.2776   -3.5382 O   0  0  0  0  0  0  0  0  0  0  0  0
    1.8094    0.1111   -3.4811 O   0  0  0  0  0  0  0  0  0  0  0  0
    0.3128   -0.1332   -1.2256 C   0  0  0  0  0  0  0  0  0  0  0  0
   -0.4506   -0.1762   -0.0665 C   0  0  0  0  0  0  0  0  0  0  0  0
   -1.1694    3.1540    0.2518 H   0  0  0  0  0  0  0  0  0  0  0  0
    0.2496    3.2282   -1.7809 H   0  0  0  0  0  0  0  0  0  0  0  0
    0.7415   -1.0257   -1.6627 H   0  0  0  0  0  0  0  0  0  0  0  0
   -0.6287   -1.1135    0.4488 H   0  0  0  0  0  0  0  0  0  0  0  0
   -3.0553    2.4112    1.3566 O   0  0  0  0  0  0  0  0  0  0  0  0
   -4.1072    3.1594    1.8516 C   0  0  0  0  0  0  0  0  0  0  0  0
   -4.6948    2.9931    2.8729 O   0  0  0  0  0  0  0  0  0  0  0  0
   -4.3919    4.2745    0.8221 C   0  0  0  0  0  0  0  0  0  0  0  0
   -4.8205    3.7390   -0.3311 F   0  0  0  0  0  0  0  0  0  0  0  0
   -5.3188    5.1032    1.2935 F   0  0  0  0  0  0  0  0  0  0  0  0
   -3.2641    4.9701    0.5752 F   0  0  0  0  0  0  0  0  0  0  0  0
  1  2  1  0  0  0  0
  2  3  1  0  0  0  0
  4 12  1  0  0  0  0
  4  1  2  0  0  0  0
  5  4  1  0  0  0  0
  6  5  2  0  0  0  0
  6 10  1  0  0  0  0
  7  6  1  0  0  0  0
  8  7  2  0  0  0  0
  9  7  2  0  0  0  0
 10 11  2  0  0  0  0
 11 15  1  0  0  0  0
 11  1  1  0  0  0  0
 13  5  1  0  0  0  0
 14 10  1  0  0  0  0
 16 17  1  0  0  0  0
 16  3  1  0  0  0  0
 17 18  2  0  0  0  0
 19 21  1  0  0  0  0
 19 17  1  0  0  0  0
 20 19  1  0  0  0  0
 22 19  1  0  0  0  0
M  RAD  2   2   2   3   2
M  END
