Coordinates from ORCA-job 4-NO2PhN2+~CF3COO-_B3LYPG-6-31G_dp-NX-Scan-d89-09-n800
 OpenBabel11261920383D

 22 22  0  0  1  0  0  0  0  0999 V2000
   -1.8671    0.4274   -0.0647 C   0  0  0  0  0  0  0  0  0  0  0  0
   -2.9931   -0.1779    0.2572 N   0  0  0  0  0  0  0  0  0  0  0  0
   -3.9661   -0.6997    0.5343 N   0  0  0  0  0  0  0  0  0  0  0  0
   -1.9609    1.7385   -0.7835 C   0  0  2  0  0  0  0  0  0  0  0  0
   -0.6705    2.0717   -1.4555 C   0  0  0  0  0  0  0  0  0  0  0  0
    0.4697    1.4494   -1.0930 C   0  0  0  0  0  0  0  0  0  0  0  0
    1.7323    1.8825   -1.7406 N   0  0  0  0  0  0  0  0  0  0  0  0
    1.6698    2.7571   -2.5999 O   0  0  0  0  0  0  0  0  0  0  0  0
    2.7668    1.3375   -1.3617 O   0  0  0  0  0  0  0  0  0  0  0  0
    0.5483    0.3648   -0.1471 C   0  0  0  0  0  0  0  0  0  0  0  0
   -0.6104   -0.1474    0.3372 C   0  0  0  0  0  0  0  0  0  0  0  0
   -2.8130    1.7770   -1.4636 H   0  0  0  0  0  0  0  0  0  0  0  0
   -0.6547    2.8574   -2.2001 H   0  0  0  0  0  0  0  0  0  0  0  0
    1.5155   -0.0358    0.1191 H   0  0  0  0  0  0  0  0  0  0  0  0
   -0.6144   -0.9993    1.0091 H   0  0  0  0  0  0  0  0  0  0  0  0
   -4.3927    3.0226   -0.4096 O   0  0  0  0  0  0  0  0  0  0  0  0
   -3.4354    3.3633    0.2417 C   0  0  0  0  0  0  0  0  0  0  0  0
   -2.2038    2.8477    0.2089 O   0  0  0  0  0  0  0  0  0  0  0  0
   -3.4833    4.5210    1.2666 C   0  0  0  0  0  0  0  0  0  0  0  0
   -2.6377    5.4988    0.9000 F   0  0  0  0  0  0  0  0  0  0  0  0
   -4.7171    5.0229    1.3397 F   0  0  0  0  0  0  0  0  0  0  0  0
   -3.1216    4.0799    2.4839 F   0  0  0  0  0  0  0  0  0  0  0  0
  1  2  1  0  0  0  0
  1 11  2  0  0  0  0
  2  3  1  0  0  0  0
  4 12  1  6  0  0  0
  4  1  1  0  0  0  0
  4 18  1  0  0  0  0
  5  6  2  0  0  0  0
  5  4  1  0  0  0  0
  6 10  1  0  0  0  0
  7  9  2  0  0  0  0
  7  6  1  0  0  0  0
  8  7  2  0  0  0  0
 10 14  1  0  0  0  0
 10 11  1  0  0  0  0
 11 15  1  0  0  0  0
 13  5  1  0  0  0  0
 16 17  2  0  0  0  0
 17 19  1  0  0  0  0
 18 17  1  0  0  0  0
 19 21  1  0  0  0  0
 19 22  1  0  0  0  0
 20 19  1  0  0  0  0
M  RAD  3   2   2   3   3  10   2
M  END
