Coordinates from ORCA-job 4-NO2PhN2+~CF3COO-_B3LYPG-6-31G_dp-NX-Scan-d89-09-n800
 OpenBabel11261920383D

 22 21  0  0  0  0  0  0  0  0999 V2000
   -1.8883    0.0216    0.2816 C   0  0  0  0  0  0  0  0  0  0  0  0
   -2.7467   -0.8992    0.7930 N   0  0  0  0  0  0  0  0  0  0  0  0
   -3.3870   -1.7203    1.2220 N   0  0  0  0  0  0  0  0  0  0  0  0
   -2.2715    0.7800   -0.8493 C   0  0  0  0  0  0  0  0  0  0  0  0
   -1.2880    1.5802   -1.4387 C   0  0  0  0  0  0  0  0  0  0  0  0
   -0.0363    1.6519   -0.8555 C   0  0  0  0  0  0  0  0  0  0  0  0
    0.9873    2.5070   -1.4853 N   0  0  0  0  0  0  0  0  0  0  0  0
    0.6908    3.0590   -2.5390 O   0  0  0  0  0  0  0  0  0  0  0  0
    2.0725    2.5893   -0.9125 O   0  0  0  0  0  0  0  0  0  0  0  0
    0.3138    0.9599    0.3232 C   0  0  0  0  0  0  0  0  0  0  0  0
   -0.6074    0.1295    0.9058 C   0  0  0  0  0  0  0  0  0  0  0  0
   -3.2567    0.7008   -1.2845 H   0  0  0  0  0  0  0  0  0  0  0  0
   -1.5262    2.1707   -2.3115 H   0  0  0  0  0  0  0  0  0  0  0  0
    1.3025    1.0962    0.7417 H   0  0  0  0  0  0  0  0  0  0  0  0
   -0.3862   -0.4349    1.8037 H   0  0  0  0  0  0  0  0  0  0  0  0
   -3.8038    5.2030   -0.9833 O   0  0  0  0  0  0  0  0  0  0  0  0
   -3.3729    4.1154   -0.5995 C   0  0  0  0  0  0  0  0  0  0  0  0
   -3.5733    2.9601   -1.1029 O   0  0  0  0  0  0  0  0  0  0  0  0
   -2.4142    4.1288    0.6305 C   0  0  0  0  0  0  0  0  0  0  0  0
   -2.4893    2.9854    1.3696 F   0  0  0  0  0  0  0  0  0  0  0  0
   -1.1188    4.2206    0.2104 F   0  0  0  0  0  0  0  0  0  0  0  0
   -2.6399    5.1541    1.4588 F   0  0  0  0  0  0  0  0  0  0  0  0
  1  2  1  0  0  0  0
  1 11  1  0  0  0  0
  2  3  1  0  0  0  0
  4  1  2  0  0  0  0
  5  6  2  0  0  0  0
  5  4  1  0  0  0  0
  6 10  1  0  0  0  0
  7  9  2  0  0  0  0
  7  6  1  0  0  0  0
  8  7  2  0  0  0  0
 10 14  1  0  0  0  0
 10 11  2  0  0  0  0
 11 15  1  0  0  0  0
 12  4  1  0  0  0  0
 13  5  1  0  0  0  0
 16 17  1  0  0  0  0
 17 19  1  0  0  0  0
 18 17  2  0  0  0  0
 19 20  1  0  0  0  0
 19 22  1  0  0  0  0
 21 19  1  0  0  0  0
M  RAD  3   2   2   3   3  16   2
M  END
