Coordinates from ORCA-job 4-NO2PhN2+~CF3COO-_B3LYPG-6-31G_dp-NX-Scan-d89-09-n800
 OpenBabel11261920383D

 22 21  0  0  0  0  0  0  0  0999 V2000
   -0.9995    1.3358   -0.2681 C   0  0  0  0  0  0  0  0  0  0  0  0
   -2.0586    1.5968    0.6637 N   0  0  0  0  0  0  0  0  0  0  0  0
   -2.6316    2.7236    0.5241 N   0  0  0  0  0  0  0  0  0  0  0  0
   -0.5633    2.1824   -1.3016 C   0  0  0  0  0  0  0  0  0  0  0  0
    0.4854    1.7843   -2.1262 C   0  0  0  0  0  0  0  0  0  0  0  0
    1.0874    0.5476   -1.9128 C   0  0  0  0  0  0  0  0  0  0  0  0
    2.1948    0.1335   -2.7852 N   0  0  0  0  0  0  0  0  0  0  0  0
    2.5414    0.9105   -3.6744 O   0  0  0  0  0  0  0  0  0  0  0  0
    2.7063   -0.9647   -2.5711 O   0  0  0  0  0  0  0  0  0  0  0  0
    0.6685   -0.3079   -0.8934 C   0  0  0  0  0  0  0  0  0  0  0  0
   -0.3765    0.0916   -0.0735 C   0  0  0  0  0  0  0  0  0  0  0  0
   -1.0202    3.1486   -1.4825 H   0  0  0  0  0  0  0  0  0  0  0  0
    0.8408    2.4176   -2.9295 H   0  0  0  0  0  0  0  0  0  0  0  0
    1.1628   -1.2619   -0.7610 H   0  0  0  0  0  0  0  0  0  0  0  0
   -0.7318   -0.5431    0.7306 H   0  0  0  0  0  0  0  0  0  0  0  0
   -2.7144    3.5354    0.0780 O   0  0  0  0  0  0  0  0  0  0  0  0
   -4.4605    3.9769    1.6221 C   0  0  0  0  0  0  0  0  0  0  0  0
   -4.0605    2.8722    1.9264 O   0  0  0  0  0  0  0  0  0  0  0  0
   -5.6137    4.5436    2.4714 C   0  0  0  0  0  0  0  0  0  0  0  0
   -6.6445    4.8195    1.6544 F   0  0  0  0  0  0  0  0  0  0  0  0
   -6.0598    3.7313    3.4449 F   0  0  0  0  0  0  0  0  0  0  0  0
   -5.1918    5.6855    3.0419 F   0  0  0  0  0  0  0  0  0  0  0  0
  1 11  1  0  0  0  0
  1  2  1  0  0  0  0
  3  2  1  0  0  0  0
  4  1  2  0  0  0  0
  5  6  2  0  0  0  0
  5  4  1  0  0  0  0
  6 10  1  0  0  0  0
  7  9  2  0  0  0  0
  7  6  1  0  0  0  0
  8  7  2  0  0  0  0
 10 14  1  0  0  0  0
 10 11  2  0  0  0  0
 11 15  1  0  0  0  0
 12  4  1  0  0  0  0
 13  5  1  0  0  0  0
 16  3  2  0  0  0  0
 17 18  2  0  0  0  0
 17 19  1  0  0  0  0
 19 22  1  0  0  0  0
 19 21  1  0  0  0  0
 20 19  1  0  0  0  0
M  RAD  2   2   2  17   2
M  END
