Coordinates from ORCA-job 4-NO2PhN2+~CF3COO-_B3LYPG-6-31G_dp-NX-Scan-d89-09-n800
 OpenBabel11261920383D

 22 22  0  0  1  0  0  0  0  0999 V2000
   -1.8833    0.1850    0.0735 C   0  0  1  0  0  0  0  0  0  0  0  0
   -2.8240   -0.6772    0.4159 N   0  0  0  0  0  0  0  0  0  0  0  0
   -3.5659   -1.4836    0.7331 N   0  0  0  0  0  0  0  0  0  0  0  0
   -2.2240    1.4422   -0.6721 C   0  0  2  0  0  0  0  0  0  0  0  0
   -1.0391    1.9189   -1.4532 C   0  0  0  0  0  0  0  0  0  0  0  0
    0.2046    1.5417   -1.0942 C   0  0  0  0  0  0  0  0  0  0  0  0
    1.3498    2.1197   -1.8397 N   0  0  0  0  0  0  0  0  0  0  0  0
    1.1073    2.8685   -2.7812 O   0  0  0  0  0  0  0  0  0  0  0  0
    2.4756    1.8067   -1.4573 O   0  0  0  0  0  0  0  0  0  0  0  0
    0.5036    0.5752   -0.0678 C   0  0  0  0  0  0  0  0  0  0  0  0
   -0.5290   -0.1117    0.4777 C   0  0  0  0  0  0  0  0  0  0  0  0
   -3.1078    1.3336   -1.3051 H   0  0  0  0  0  0  0  0  0  0  0  0
   -1.1946    2.6257   -2.2565 H   0  0  0  0  0  0  0  0  0  0  0  0
    1.5329    0.3855    0.2007 H   0  0  0  0  0  0  0  0  0  0  0  0
   -0.3614   -0.9053    1.1986 H   0  0  0  0  0  0  0  0  0  0  0  0
   -2.8748    4.1919   -1.1398 O   0  0  0  0  0  0  0  0  0  0  0  0
   -2.8985    3.7204   -0.0282 C   0  0  0  0  0  0  0  0  0  0  0  0
   -2.6134    2.4741    0.3634 O   0  0  0  0  0  0  0  0  0  0  0  0
   -3.2867    4.5530    1.2192 C   0  0  0  0  0  0  0  0  0  0  0  0
   -2.2683    4.5836    2.0964 F   0  0  0  0  0  0  0  0  0  0  0  0
   -3.5874    5.8033    0.8654 F   0  0  0  0  0  0  0  0  0  0  0  0
   -4.3551    4.0079    1.8293 F   0  0  0  0  0  0  0  0  0  0  0  0
  1  2  1  1  0  0  0
  1 11  1  0  0  0  0
  2  3  1  0  0  0  0
  4 12  1  6  0  0  0
  4  1  1  0  0  0  0
  4 18  1  0  0  0  0
  5  6  2  0  0  0  0
  5  4  1  0  0  0  0
  6 10  1  0  0  0  0
  7  9  2  0  0  0  0
  7  6  1  0  0  0  0
  8  7  2  0  0  0  0
 10 14  1  0  0  0  0
 10 11  2  0  0  0  0
 11 15  1  0  0  0  0
 13  5  1  0  0  0  0
 16 17  2  0  0  0  0
 17 18  1  0  0  0  0
 17 19  1  0  0  0  0
 19 22  1  0  0  0  0
 19 20  1  0  0  0  0
 21 19  1  0  0  0  0
M  RAD  3   1   2   2   2   3   3
M  END
