Coordinates from ORCA-job 4-NO2PhN2+~CF3COO-_B3LYPG-6-31G_dp-NX-Scan-d89-09-n800
 OpenBabel11261920383D

 22 21  0  0  0  0  0  0  0  0999 V2000
   -1.3208    0.6611    0.0887 C   0  0  0  0  0  0  0  0  0  0  0  0
   -2.3162    0.3663    1.0437 N   0  0  0  0  0  0  0  0  0  0  0  0
   -3.2738    0.7839    1.5467 N   0  0  0  0  0  0  0  0  0  0  0  0
   -1.3949    1.7934   -0.7402 C   0  0  0  0  0  0  0  0  0  0  0  0
   -0.3667    2.0009   -1.6541 C   0  0  0  0  0  0  0  0  0  0  0  0
    0.6853    1.0883   -1.7157 C   0  0  0  0  0  0  0  0  0  0  0  0
    1.7715    1.3223   -2.6954 N   0  0  0  0  0  0  0  0  0  0  0  0
    1.6823    2.3187   -3.4059 O   0  0  0  0  0  0  0  0  0  0  0  0
    2.6844    0.5018   -2.7263 O   0  0  0  0  0  0  0  0  0  0  0  0
    0.7604   -0.0367   -0.8976 C   0  0  0  0  0  0  0  0  0  0  0  0
   -0.2627   -0.2549    0.0170 C   0  0  0  0  0  0  0  0  0  0  0  0
   -2.2317    2.4745   -0.6509 H   0  0  0  0  0  0  0  0  0  0  0  0
   -0.3698    2.8579   -2.3161 H   0  0  0  0  0  0  0  0  0  0  0  0
    1.6012   -0.7121   -0.9891 H   0  0  0  0  0  0  0  0  0  0  0  0
   -0.2540   -1.1166    0.6747 H   0  0  0  0  0  0  0  0  0  0  0  0
   -3.8037    2.4445    0.7626 O   0  0  0  0  0  0  0  0  0  0  0  0
   -3.7774    3.3175    1.7284 C   0  0  0  0  0  0  0  0  0  0  0  0
   -3.3630    3.1876    2.8641 O   0  0  0  0  0  0  0  0  0  0  0  0
   -4.3462    4.6787    1.2350 C   0  0  0  0  0  0  0  0  0  0  0  0
   -5.6415    4.5644    0.8891 F   0  0  0  0  0  0  0  0  0  0  0  0
   -4.2415    5.6220    2.1760 F   0  0  0  0  0  0  0  0  0  0  0  0
   -3.6607    5.0957    0.1437 F   0  0  0  0  0  0  0  0  0  0  0  0
  1  2  1  0  0  0  0
  2  3  2  0  0  0  0
  4 12  1  0  0  0  0
  4  1  2  0  0  0  0
  5  4  1  0  0  0  0
  6  5  2  0  0  0  0
  6 10  1  0  0  0  0
  7  6  1  0  0  0  0
  8  7  2  0  0  0  0
  9  7  2  0  0  0  0
 10 11  2  0  0  0  0
 11  1  1  0  0  0  0
 11 15  1  0  0  0  0
 13  5  1  0  0  0  0
 14 10  1  0  0  0  0
 16 17  2  0  0  0  0
 17 18  1  0  0  0  0
 19 17  1  0  0  0  0
 19 21  1  0  0  0  0
 20 19  1  0  0  0  0
 22 19  1  0  0  0  0
M  RAD  2   3   2  18   2
M  END
